/*---------------------------------------------------------------------------*\
| =========                 |                                                 |
| \\      /  F ield         | OpenFOAM: The Open Source CFD Toolbox           |
|  \\    /   O peration     | Version:  plus                                  |
|   \\  /    A nd           | Website:  www.openfoam.com                      |
|    \\/     M anipulation  |                                                 |
\*---------------------------------------------------------------------------*/
Build  : 1937044933-20210216 OPENFOAM=2012
Arch   : "LSB;label=64;scalar=64"
Dco    : "dco/FOAM v1.4"
Exec   : TempMMAProgram
Date   : Mar 24 2021
Time   : 10:52:35
Host   : abhishek-VirtualBox
PID    : 13274
I/O    : uncollated
Case   : /home/abhishek/discreteadjointopenfoam_adwrapper/applications/discreteAdjointOpenFOAM/adjoint/TempMMAProgram/pitzDaily
nProcs : 1
trapFpe: Floating point exception trapping enabled (FOAM_SIGFPE).
fileModificationChecking : Monitoring run-time modified files using timeStampMaster (fileModificationSkew 5, maxFileModificationPolls 20)
allowSystemOperations : Allowing user-supplied system call operations

// * * * * * * * * * * * * * * * * * * * * * * * * * * * * * * * * * * * * * //
Create time

Create mesh for time = 0


SIMPLE: no convergence criteria found. Calculations will run for 20000 steps.

Reading field p

Reading field U

Reading field T

Reading/calculating face flux field phi

Selecting incompressible transport model Newtonian
Selecting turbulence model type RAS
Selecting RAS turbulence model kEpsilon
RAS
{
    RASModel        kEpsilon;
    turbulence      on;
    printCoeffs     on;
    Cmu             0.09;
    C1              1.44;
    C2              1.92;
    C3              0;
    sigmak          1;
    sigmaEps        1.3;
}

No MRF models present

No finite volume options present
Creating Checkpoints for fields in region0:
        nu:	no
        DT:	no
      sens:	no
   eta_old:	no
         k:	yes
   eta_MMA:	no
       nut:	yes
       eta:	no
     alpha:	no
         p:	yes
         T:	yes
    dfdeta:	no
   epsilon:	yes
         U:	yes
       phi:	yes
--------------------------------
Creating Checkpoints for fields in region0:
        nu:	no
        DT:	no
      sens:	no
   eta_old:	no
         k:	yes
   eta_MMA:	no
       nut:	yes
       eta:	no
     alpha:	no
         p:	yes
         T:	yes
    dfdeta:	no
   epsilon:	yes
         U:	yes
       phi:	yes
--------------------------------
Creating Tape, size: 4096
Starting MMA Program

Warning: Keyword penalty not found in fvSolution/SIMPLE. Default set to 0.6
Warning: Keyword alpha_f not found in fvSolution/SIMPLE. Default set to 0.1
Warning: Keyword alpha_s not found in fvSolution/SIMPLE. Default set to 10e5
Warning: Keyword maxMMA not found in fvSolution/SIMPLE. Default set to 15
Warning: Keyword volumeConstraint not found in fvSolution/SIMPLE. Default set to 0.4
Warning: Keyword maxLoop not found in fvSolution/SIMPLE. Default set to 15
Sum dfdeta = 1

Starting time loop

Time = 1

smoothSolver:  Solving for Ux, Initial residual = 0.0549971, Final residual = 7.41088e-06, No Iterations 19
smoothSolver:  Solving for Uy, Initial residual = 0.125008, Final residual = 7.37996e-06, No Iterations 20
GAMG:  Solving for p, Initial residual = 1, Final residual = 7.03964e-07, No Iterations 33
time step continuity errors : sum local = 1.53857e-05, global = 3.47638e-06, cumulative = 3.47638e-06
DILUPBiCG:  Solving for T, Initial residual = 1, Final residual = 0.0542823, No Iterations 2
smoothSolver:  Solving for epsilon, Initial residual = 0.187805, Final residual = 6.41498e-06, No Iterations 18
smoothSolver:  Solving for k, Initial residual = 1, Final residual = 7.41794e-06, No Iterations 23
DILUPBiCG:  Solving for T, Initial residual = 0.0315495, Final residual = 0.00211358, No Iterations 2
ExecutionTime = 1.8 s  ClockTime = 1 s

Time = 2

smoothSolver:  Solving for Ux, Initial residual = 0.445341, Final residual = 6.8965e-06, No Iterations 23
smoothSolver:  Solving for Uy, Initial residual = 0.182212, Final residual = 6.81356e-06, No Iterations 22
GAMG:  Solving for p, Initial residual = 0.048302, Final residual = 6.51433e-07, No Iterations 25
time step continuity errors : sum local = 0.000637789, global = -0.000109372, cumulative = -0.000105896
DILUPBiCG:  Solving for T, Initial residual = 0.0267554, Final residual = 0.00204915, No Iterations 2
smoothSolver:  Solving for epsilon, Initial residual = 0.145842, Final residual = 8.7244e-06, No Iterations 19
smoothSolver:  Solving for k, Initial residual = 0.355584, Final residual = 7.11071e-06, No Iterations 22
DILUPBiCG:  Solving for T, Initial residual = 0.0170716, Final residual = 0.00168707, No Iterations 2
ExecutionTime = 2.02 s  ClockTime = 2 s

Time = 3

smoothSolver:  Solving for Ux, Initial residual = 0.0877169, Final residual = 7.57813e-06, No Iterations 19
smoothSolver:  Solving for Uy, Initial residual = 0.123992, Final residual = 8.93773e-06, No Iterations 20
GAMG:  Solving for p, Initial residual = 0.220588, Final residual = 8.8641e-07, No Iterations 21
time step continuity errors : sum local = 0.000171702, global = 2.8195e-05, cumulative = -7.77008e-05
DILUPBiCG:  Solving for T, Initial residual = 0.0221829, Final residual = 0.000344051, No Iterations 5
smoothSolver:  Solving for epsilon, Initial residual = 0.109587, Final residual = 6.92246e-06, No Iterations 18
smoothSolver:  Solving for k, Initial residual = 0.161771, Final residual = 9.61947e-06, No Iterations 19
DILUPBiCG:  Solving for T, Initial residual = 0.00954982, Final residual = 0.000225759, No Iterations 5
ExecutionTime = 2.23 s  ClockTime = 2 s

Time = 4

smoothSolver:  Solving for Ux, Initial residual = 0.0552714, Final residual = 6.92e-06, No Iterations 19
smoothSolver:  Solving for Uy, Initial residual = 0.068818, Final residual = 7.86713e-06, No Iterations 20
GAMG:  Solving for p, Initial residual = 0.138896, Final residual = 7.89049e-07, No Iterations 20
time step continuity errors : sum local = 0.000110383, global = -1.87833e-05, cumulative = -9.64841e-05
DILUPBiCG:  Solving for T, Initial residual = 0.0135282, Final residual = 0.000776538, No Iterations 3
smoothSolver:  Solving for epsilon, Initial residual = 0.0654717, Final residual = 9.78475e-06, No Iterations 15
smoothSolver:  Solving for k, Initial residual = 0.107103, Final residual = 6.41631e-06, No Iterations 19
DILUPBiCG:  Solving for T, Initial residual = 0.00672025, Final residual = 0.000303026, No Iterations 3
ExecutionTime = 2.44 s  ClockTime = 2 s

Time = 5

smoothSolver:  Solving for Ux, Initial residual = 0.051935, Final residual = 7.04639e-06, No Iterations 19
smoothSolver:  Solving for Uy, Initial residual = 0.0585925, Final residual = 6.82903e-06, No Iterations 20
GAMG:  Solving for p, Initial residual = 0.108085, Final residual = 7.80464e-07, No Iterations 15
time step continuity errors : sum local = 8.13133e-05, global = -1.24089e-05, cumulative = -0.000108893
DILUPBiCG:  Solving for T, Initial residual = 0.0171108, Final residual = 0.0015346, No Iterations 2
smoothSolver:  Solving for epsilon, Initial residual = 0.0621624, Final residual = 6.90631e-06, No Iterations 15
smoothSolver:  Solving for k, Initial residual = 0.085037, Final residual = 8.40513e-06, No Iterations 18
DILUPBiCG:  Solving for T, Initial residual = 0.010217, Final residual = 0.000875197, No Iterations 2
ExecutionTime = 2.62 s  ClockTime = 2 s

Time = 6

smoothSolver:  Solving for Ux, Initial residual = 0.0501166, Final residual = 7.1162e-06, No Iterations 19
smoothSolver:  Solving for Uy, Initial residual = 0.0572646, Final residual = 6.78845e-06, No Iterations 20
GAMG:  Solving for p, Initial residual = 0.0886897, Final residual = 8.32841e-07, No Iterations 16
time step continuity errors : sum local = 8.60343e-05, global = -1.72369e-05, cumulative = -0.00012613
DILUPBiCG:  Solving for T, Initial residual = 0.012093, Final residual = 0.00068528, No Iterations 2
smoothSolver:  Solving for epsilon, Initial residual = 0.0499995, Final residual = 7.52721e-06, No Iterations 14
smoothSolver:  Solving for k, Initial residual = 0.0744541, Final residual = 7.59787e-06, No Iterations 18
DILUPBiCG:  Solving for T, Initial residual = 0.00873734, Final residual = 0.000426322, No Iterations 2
ExecutionTime = 2.8 s  ClockTime = 2 s

Time = 7

smoothSolver:  Solving for Ux, Initial residual = 0.0483154, Final residual = 7.02739e-06, No Iterations 19
smoothSolver:  Solving for Uy, Initial residual = 0.0589716, Final residual = 6.74449e-06, No Iterations 20
GAMG:  Solving for p, Initial residual = 0.0771102, Final residual = 7.79937e-07, No Iterations 17
time step continuity errors : sum local = 8.09037e-05, global = 1.49807e-05, cumulative = -0.000111149
DILUPBiCG:  Solving for T, Initial residual = 0.00803233, Final residual = 0.000428119, No Iterations 2
smoothSolver:  Solving for epsilon, Initial residual = 0.0430492, Final residual = 6.41458e-06, No Iterations 14
smoothSolver:  Solving for k, Initial residual = 0.0719744, Final residual = 7.37081e-06, No Iterations 18
DILUPBiCG:  Solving for T, Initial residual = 0.00611045, Final residual = 0.000330183, No Iterations 2
ExecutionTime = 3.01 s  ClockTime = 3 s

Time = 8

smoothSolver:  Solving for Ux, Initial residual = 0.0462068, Final residual = 6.81887e-06, No Iterations 19
smoothSolver:  Solving for Uy, Initial residual = 0.0599594, Final residual = 6.50533e-06, No Iterations 20
GAMG:  Solving for p, Initial residual = 0.0707673, Final residual = 9.8013e-07, No Iterations 16
time step continuity errors : sum local = 0.000104061, global = -2.28736e-05, cumulative = -0.000134023
DILUPBiCG:  Solving for T, Initial residual = 0.00629206, Final residual = 0.000605261, No Iterations 2
smoothSolver:  Solving for epsilon, Initial residual = 0.0373352, Final residual = 5.94714e-06, No Iterations 14
smoothSolver:  Solving for k, Initial residual = 0.0713124, Final residual = 7.22629e-06, No Iterations 18
DILUPBiCG:  Solving for T, Initial residual = 0.00572166, Final residual = 0.000309703, No Iterations 2
ExecutionTime = 3.2 s  ClockTime = 3 s

Time = 9

smoothSolver:  Solving for Ux, Initial residual = 0.0437654, Final residual = 6.52094e-06, No Iterations 19
smoothSolver:  Solving for Uy, Initial residual = 0.0589498, Final residual = 9.629e-06, No Iterations 19
GAMG:  Solving for p, Initial residual = 0.0654619, Final residual = 6.47325e-07, No Iterations 16
time step continuity errors : sum local = 7.0782e-05, global = -1.63975e-05, cumulative = -0.00015042
DILUPBiCG:  Solving for T, Initial residual = 0.00603546, Final residual = 0.000336647, No Iterations 2
smoothSolver:  Solving for epsilon, Initial residual = 0.0323666, Final residual = 9.63466e-06, No Iterations 13
smoothSolver:  Solving for k, Initial residual = 0.069842, Final residual = 7.07848e-06, No Iterations 18
DILUPBiCG:  Solving for T, Initial residual = 0.00516667, Final residual = 0.000295546, No Iterations 2
ExecutionTime = 3.39 s  ClockTime = 3 s

Time = 10

smoothSolver:  Solving for Ux, Initial residual = 0.0410671, Final residual = 9.53498e-06, No Iterations 18
smoothSolver:  Solving for Uy, Initial residual = 0.0567071, Final residual = 9.08269e-06, No Iterations 19
GAMG:  Solving for p, Initial residual = 0.063392, Final residual = 9.863e-07, No Iterations 15
time step continuity errors : sum local = 0.000111267, global = 1.99991e-05, cumulative = -0.000130421
DILUPBiCG:  Solving for T, Initial residual = 0.00518895, Final residual = 0.000324411, No Iterations 2
smoothSolver:  Solving for epsilon, Initial residual = 0.0264324, Final residual = 9.31869e-06, No Iterations 13
smoothSolver:  Solving for k, Initial residual = 0.067537, Final residual = 6.93686e-06, No Iterations 18
DILUPBiCG:  Solving for T, Initial residual = 0.00425453, Final residual = 0.000291424, No Iterations 2
ExecutionTime = 3.57 s  ClockTime = 3 s

Time = 11

smoothSolver:  Solving for Ux, Initial residual = 0.0386365, Final residual = 8.91886e-06, No Iterations 18
smoothSolver:  Solving for Uy, Initial residual = 0.0541598, Final residual = 8.52049e-06, No Iterations 19
GAMG:  Solving for p, Initial residual = 0.062832, Final residual = 6.43945e-07, No Iterations 16
time step continuity errors : sum local = 7.41929e-05, global = -1.44216e-05, cumulative = -0.000144843
DILUPBiCG:  Solving for T, Initial residual = 0.00428928, Final residual = 0.000318605, No Iterations 2
smoothSolver:  Solving for epsilon, Initial residual = 0.0218467, Final residual = 8.9559e-06, No Iterations 13
smoothSolver:  Solving for k, Initial residual = 0.0648424, Final residual = 6.79302e-06, No Iterations 18
DILUPBiCG:  Solving for T, Initial residual = 0.00351256, Final residual = 0.000290747, No Iterations 2
ExecutionTime = 3.75 s  ClockTime = 3 s

Time = 12

smoothSolver:  Solving for Ux, Initial residual = 0.036282, Final residual = 8.29463e-06, No Iterations 18
smoothSolver:  Solving for Uy, Initial residual = 0.0517964, Final residual = 7.99974e-06, No Iterations 19
GAMG:  Solving for p, Initial residual = 0.0627758, Final residual = 9.70929e-07, No Iterations 15
time step continuity errors : sum local = 0.000112534, global = 2.46372e-05, cumulative = -0.000120206
DILUPBiCG:  Solving for T, Initial residual = 0.00365176, Final residual = 0.000316253, No Iterations 2
smoothSolver:  Solving for epsilon, Initial residual = 0.0187116, Final residual = 8.48866e-06, No Iterations 13
smoothSolver:  Solving for k, Initial residual = 0.0620062, Final residual = 6.64892e-06, No Iterations 18
DILUPBiCG:  Solving for T, Initial residual = 0.00300557, Final residual = 0.000289676, No Iterations 2
ExecutionTime = 3.93 s  ClockTime = 4 s

Time = 13

smoothSolver:  Solving for Ux, Initial residual = 0.0339245, Final residual = 7.69071e-06, No Iterations 18
smoothSolver:  Solving for Uy, Initial residual = 0.0499844, Final residual = 7.55138e-06, No Iterations 19
GAMG:  Solving for p, Initial residual = 0.061327, Final residual = 8.52805e-07, No Iterations 15
time step continuity errors : sum local = 9.7557e-05, global = 2.15704e-05, cumulative = -9.86352e-05
DILUPBiCG:  Solving for T, Initial residual = 0.0032228, Final residual = 0.000315497, No Iterations 2
smoothSolver:  Solving for epsilon, Initial residual = 0.0166818, Final residual = 7.96234e-06, No Iterations 13
smoothSolver:  Solving for k, Initial residual = 0.0592759, Final residual = 6.50285e-06, No Iterations 18
DILUPBiCG:  Solving for T, Initial residual = 0.00268131, Final residual = 0.000167522, No Iterations 3
ExecutionTime = 4.12 s  ClockTime = 4 s

Time = 14

smoothSolver:  Solving for Ux, Initial residual = 0.0316307, Final residual = 7.12883e-06, No Iterations 18
smoothSolver:  Solving for Uy, Initial residual = 0.0485522, Final residual = 7.17028e-06, No Iterations 19
GAMG:  Solving for p, Initial residual = 0.0586006, Final residual = 7.67715e-07, No Iterations 15
time step continuity errors : sum local = 8.56766e-05, global = 1.9601e-05, cumulative = -7.90342e-05
DILUPBiCG:  Solving for T, Initial residual = 0.00296133, Final residual = 0.000155812, No Iterations 3
smoothSolver:  Solving for epsilon, Initial residual = 0.0149547, Final residual = 7.42817e-06, No Iterations 13
smoothSolver:  Solving for k, Initial residual = 0.0564941, Final residual = 6.35077e-06, No Iterations 18
DILUPBiCG:  Solving for T, Initial residual = 0.00244565, Final residual = 0.000133752, No Iterations 3
ExecutionTime = 4.31 s  ClockTime = 4 s

Time = 15

smoothSolver:  Solving for Ux, Initial residual = 0.0293791, Final residual = 6.61209e-06, No Iterations 18
smoothSolver:  Solving for Uy, Initial residual = 0.046962, Final residual = 6.83566e-06, No Iterations 19
GAMG:  Solving for p, Initial residual = 0.0557416, Final residual = 8.18273e-07, No Iterations 15
time step continuity errors : sum local = 8.86523e-05, global = 1.93638e-05, cumulative = -5.96703e-05
DILUPBiCG:  Solving for T, Initial residual = 0.00282569, Final residual = 0.000150898, No Iterations 3
smoothSolver:  Solving for epsilon, Initial residual = 0.013471, Final residual = 6.89065e-06, No Iterations 13
smoothSolver:  Solving for k, Initial residual = 0.0537825, Final residual = 6.18798e-06, No Iterations 18
DILUPBiCG:  Solving for T, Initial residual = 0.00232466, Final residual = 0.000197637, No Iterations 3
ExecutionTime = 4.49 s  ClockTime = 4 s

Time = 16

smoothSolver:  Solving for Ux, Initial residual = 0.0273976, Final residual = 9.56909e-06, No Iterations 17
smoothSolver:  Solving for Uy, Initial residual = 0.0449285, Final residual = 6.54095e-06, No Iterations 19
GAMG:  Solving for p, Initial residual = 0.053135, Final residual = 8.18345e-07, No Iterations 15
time step continuity errors : sum local = 8.61772e-05, global = 1.51388e-05, cumulative = -4.45315e-05
DILUPBiCG:  Solving for T, Initial residual = 0.00267844, Final residual = 0.000150573, No Iterations 3
smoothSolver:  Solving for epsilon, Initial residual = 0.0120373, Final residual = 6.35684e-06, No Iterations 13
smoothSolver:  Solving for k, Initial residual = 0.0510961, Final residual = 9.85361e-06, No Iterations 17
DILUPBiCG:  Solving for T, Initial residual = 0.0021989, Final residual = 0.000203919, No Iterations 3
ExecutionTime = 4.67 s  ClockTime = 4 s

Time = 17

smoothSolver:  Solving for Ux, Initial residual = 0.0256301, Final residual = 8.90473e-06, No Iterations 17
smoothSolver:  Solving for Uy, Initial residual = 0.0428217, Final residual = 9.85724e-06, No Iterations 18
GAMG:  Solving for p, Initial residual = 0.0508958, Final residual = 6.23322e-07, No Iterations 16
time step continuity errors : sum local = 6.35222e-05, global = -1.1654e-05, cumulative = -5.61856e-05
DILUPBiCG:  Solving for T, Initial residual = 0.00255129, Final residual = 0.000144333, No Iterations 3
smoothSolver:  Solving for epsilon, Initial residual = 0.0109622, Final residual = 9.91246e-06, No Iterations 12
smoothSolver:  Solving for k, Initial residual = 0.0485893, Final residual = 9.5343e-06, No Iterations 17
DILUPBiCG:  Solving for T, Initial residual = 0.00209761, Final residual = 6.4641e-05, No Iterations 4
ExecutionTime = 4.86 s  ClockTime = 4 s

Time = 18

smoothSolver:  Solving for Ux, Initial residual = 0.0239826, Final residual = 8.29891e-06, No Iterations 17
smoothSolver:  Solving for Uy, Initial residual = 0.0410068, Final residual = 9.49934e-06, No Iterations 18
GAMG:  Solving for p, Initial residual = 0.0488684, Final residual = 7.20371e-07, No Iterations 16
time step continuity errors : sum local = 7.09869e-05, global = -1.30125e-05, cumulative = -6.9198e-05
DILUPBiCG:  Solving for T, Initial residual = 0.00237591, Final residual = 0.000134588, No Iterations 3
smoothSolver:  Solving for epsilon, Initial residual = 0.00997824, Final residual = 9.10047e-06, No Iterations 12
smoothSolver:  Solving for k, Initial residual = 0.0463128, Final residual = 9.20172e-06, No Iterations 17
DILUPBiCG:  Solving for T, Initial residual = 0.00197235, Final residual = 0.000152581, No Iterations 3
ExecutionTime = 5.04 s  ClockTime = 5 s

Time = 19

smoothSolver:  Solving for Ux, Initial residual = 0.0224067, Final residual = 7.74734e-06, No Iterations 17
smoothSolver:  Solving for Uy, Initial residual = 0.0393505, Final residual = 9.18338e-06, No Iterations 18
GAMG:  Solving for p, Initial residual = 0.046743, Final residual = 7.51395e-07, No Iterations 16
time step continuity errors : sum local = 7.15517e-05, global = -1.40544e-05, cumulative = -8.32524e-05
DILUPBiCG:  Solving for T, Initial residual = 0.00225476, Final residual = 0.000128504, No Iterations 3
smoothSolver:  Solving for epsilon, Initial residual = 0.00918101, Final residual = 8.35111e-06, No Iterations 12
smoothSolver:  Solving for k, Initial residual = 0.0441648, Final residual = 8.88911e-06, No Iterations 17
DILUPBiCG:  Solving for T, Initial residual = 0.00187865, Final residual = 0.000137946, No Iterations 3
ExecutionTime = 5.23 s  ClockTime = 5 s

Time = 20

smoothSolver:  Solving for Ux, Initial residual = 0.0209101, Final residual = 7.24614e-06, No Iterations 17
smoothSolver:  Solving for Uy, Initial residual = 0.0378933, Final residual = 8.90554e-06, No Iterations 18
GAMG:  Solving for p, Initial residual = 0.0445442, Final residual = 6.36838e-07, No Iterations 16
time step continuity errors : sum local = 5.8577e-05, global = -1.29108e-05, cumulative = -9.61632e-05
DILUPBiCG:  Solving for T, Initial residual = 0.00214256, Final residual = 0.000124576, No Iterations 3
smoothSolver:  Solving for epsilon, Initial residual = 0.00850886, Final residual = 7.69402e-06, No Iterations 12
smoothSolver:  Solving for k, Initial residual = 0.0420405, Final residual = 8.61525e-06, No Iterations 17
DILUPBiCG:  Solving for T, Initial residual = 0.00179853, Final residual = 0.000125035, No Iterations 3
ExecutionTime = 5.41 s  ClockTime = 5 s

Time = 21

smoothSolver:  Solving for Ux, Initial residual = 0.0195264, Final residual = 6.79338e-06, No Iterations 17
smoothSolver:  Solving for Uy, Initial residual = 0.036767, Final residual = 8.73949e-06, No Iterations 18
GAMG:  Solving for p, Initial residual = 0.0424911, Final residual = 6.41753e-07, No Iterations 15
time step continuity errors : sum local = 5.69702e-05, global = 7.81228e-06, cumulative = -8.83509e-05
DILUPBiCG:  Solving for T, Initial residual = 0.00206243, Final residual = 0.000120492, No Iterations 3
smoothSolver:  Solving for epsilon, Initial residual = 0.00794118, Final residual = 7.14087e-06, No Iterations 12
smoothSolver:  Solving for k, Initial residual = 0.0399757, Final residual = 8.36201e-06, No Iterations 17
DILUPBiCG:  Solving for T, Initial residual = 0.00172888, Final residual = 0.000113518, No Iterations 3
ExecutionTime = 5.59 s  ClockTime = 5 s

Time = 22

smoothSolver:  Solving for Ux, Initial residual = 0.0182617, Final residual = 6.38179e-06, No Iterations 17
smoothSolver:  Solving for Uy, Initial residual = 0.0358023, Final residual = 8.65153e-06, No Iterations 18
GAMG:  Solving for p, Initial residual = 0.0405231, Final residual = 8.30307e-07, No Iterations 14
time step continuity errors : sum local = 7.10764e-05, global = -1.72343e-05, cumulative = -0.000105585
DILUPBiCG:  Solving for T, Initial residual = 0.00198594, Final residual = 0.00011925, No Iterations 3
smoothSolver:  Solving for epsilon, Initial residual = 0.00746389, Final residual = 6.69944e-06, No Iterations 12
smoothSolver:  Solving for k, Initial residual = 0.0380411, Final residual = 8.12101e-06, No Iterations 17
DILUPBiCG:  Solving for T, Initial residual = 0.00166874, Final residual = 0.000111815, No Iterations 3
ExecutionTime = 5.77 s  ClockTime = 5 s

Time = 23

smoothSolver:  Solving for Ux, Initial residual = 0.017098, Final residual = 9.4257e-06, No Iterations 16
smoothSolver:  Solving for Uy, Initial residual = 0.0350141, Final residual = 8.61175e-06, No Iterations 18
GAMG:  Solving for p, Initial residual = 0.0387239, Final residual = 7.50561e-07, No Iterations 14
time step continuity errors : sum local = 6.1987e-05, global = -1.48432e-05, cumulative = -0.000120428
DILUPBiCG:  Solving for T, Initial residual = 0.00189931, Final residual = 0.00011326, No Iterations 3
smoothSolver:  Solving for epsilon, Initial residual = 0.00706067, Final residual = 6.37409e-06, No Iterations 12
smoothSolver:  Solving for k, Initial residual = 0.0361931, Final residual = 7.88659e-06, No Iterations 17
DILUPBiCG:  Solving for T, Initial residual = 0.00160964, Final residual = 0.00010135, No Iterations 3
ExecutionTime = 5.95 s  ClockTime = 6 s

Time = 24

smoothSolver:  Solving for Ux, Initial residual = 0.0160205, Final residual = 8.89115e-06, No Iterations 16
smoothSolver:  Solving for Uy, Initial residual = 0.0343851, Final residual = 8.60689e-06, No Iterations 18
GAMG:  Solving for p, Initial residual = 0.0370879, Final residual = 7.11858e-07, No Iterations 14
time step continuity errors : sum local = 5.67883e-05, global = -1.30806e-05, cumulative = -0.000133509
DILUPBiCG:  Solving for T, Initial residual = 0.00184431, Final residual = 0.000108889, No Iterations 3
smoothSolver:  Solving for epsilon, Initial residual = 0.00671993, Final residual = 6.1688e-06, No Iterations 12
smoothSolver:  Solving for k, Initial residual = 0.0344601, Final residual = 7.66634e-06, No Iterations 17
DILUPBiCG:  Solving for T, Initial residual = 0.0015625, Final residual = 9.56784e-05, No Iterations 3
ExecutionTime = 6.14 s  ClockTime = 6 s

Time = 25

smoothSolver:  Solving for Ux, Initial residual = 0.0150215, Final residual = 8.39568e-06, No Iterations 16
smoothSolver:  Solving for Uy, Initial residual = 0.0339083, Final residual = 8.62414e-06, No Iterations 18
GAMG:  Solving for p, Initial residual = 0.0357283, Final residual = 7.65718e-07, No Iterations 13
time step continuity errors : sum local = 5.91021e-05, global = 5.01868e-06, cumulative = -0.00012849
DILUPBiCG:  Solving for T, Initial residual = 0.00181055, Final residual = 0.000103376, No Iterations 3
smoothSolver:  Solving for epsilon, Initial residual = 0.00643204, Final residual = 6.06705e-06, No Iterations 12
smoothSolver:  Solving for k, Initial residual = 0.032864, Final residual = 7.46491e-06, No Iterations 17
DILUPBiCG:  Solving for T, Initial residual = 0.00152236, Final residual = 9.11477e-05, No Iterations 3
ExecutionTime = 6.32 s  ClockTime = 6 s

Time = 26

smoothSolver:  Solving for Ux, Initial residual = 0.0141035, Final residual = 7.93402e-06, No Iterations 16
smoothSolver:  Solving for Uy, Initial residual = 0.0335733, Final residual = 8.65976e-06, No Iterations 18
GAMG:  Solving for p, Initial residual = 0.034645, Final residual = 9.49043e-07, No Iterations 14
time step continuity errors : sum local = 7.0986e-05, global = 1.38581e-05, cumulative = -0.000114632
DILUPBiCG:  Solving for T, Initial residual = 0.00176507, Final residual = 0.000100569, No Iterations 3
smoothSolver:  Solving for epsilon, Initial residual = 0.0061945, Final residual = 6.03836e-06, No Iterations 12
smoothSolver:  Solving for k, Initial residual = 0.0314303, Final residual = 7.27829e-06, No Iterations 17
DILUPBiCG:  Solving for T, Initial residual = 0.00149047, Final residual = 9.04282e-05, No Iterations 3
ExecutionTime = 6.5 s  ClockTime = 6 s

Time = 27

smoothSolver:  Solving for Ux, Initial residual = 0.0132604, Final residual = 7.50265e-06, No Iterations 16
smoothSolver:  Solving for Uy, Initial residual = 0.0333636, Final residual = 8.70912e-06, No Iterations 18
GAMG:  Solving for p, Initial residual = 0.0337773, Final residual = 8.22332e-07, No Iterations 15
time step continuity errors : sum local = 5.96648e-05, global = -9.29305e-06, cumulative = -0.000123925
DILUPBiCG:  Solving for T, Initial residual = 0.0017582, Final residual = 0.000101144, No Iterations 3
smoothSolver:  Solving for epsilon, Initial residual = 0.00599536, Final residual = 6.06487e-06, No Iterations 12
smoothSolver:  Solving for k, Initial residual = 0.0301372, Final residual = 7.10061e-06, No Iterations 17
DILUPBiCG:  Solving for T, Initial residual = 0.0014791, Final residual = 9.22265e-05, No Iterations 3
ExecutionTime = 6.69 s  ClockTime = 6 s

Time = 28

smoothSolver:  Solving for Ux, Initial residual = 0.0124872, Final residual = 7.0981e-06, No Iterations 16
smoothSolver:  Solving for Uy, Initial residual = 0.0332255, Final residual = 8.76845e-06, No Iterations 18
GAMG:  Solving for p, Initial residual = 0.0331205, Final residual = 9.33528e-07, No Iterations 15
time step continuity errors : sum local = 6.57757e-05, global = -1.13361e-05, cumulative = -0.000135261
DILUPBiCG:  Solving for T, Initial residual = 0.001737, Final residual = 0.000100394, No Iterations 3
smoothSolver:  Solving for epsilon, Initial residual = 0.00583346, Final residual = 6.126e-06, No Iterations 12
smoothSolver:  Solving for k, Initial residual = 0.0289761, Final residual = 6.92984e-06, No Iterations 17
DILUPBiCG:  Solving for T, Initial residual = 0.00145835, Final residual = 9.12848e-05, No Iterations 3
ExecutionTime = 6.88 s  ClockTime = 6 s

Time = 29

smoothSolver:  Solving for Ux, Initial residual = 0.0117795, Final residual = 6.7194e-06, No Iterations 16
smoothSolver:  Solving for Uy, Initial residual = 0.0331201, Final residual = 8.83326e-06, No Iterations 18
GAMG:  Solving for p, Initial residual = 0.032617, Final residual = 9.5544e-07, No Iterations 15
time step continuity errors : sum local = 6.54681e-05, global = -1.14408e-05, cumulative = -0.000146702
DILUPBiCG:  Solving for T, Initial residual = 0.00172913, Final residual = 0.00010027, No Iterations 3
smoothSolver:  Solving for epsilon, Initial residual = 0.0057086, Final residual = 6.19306e-06, No Iterations 12
smoothSolver:  Solving for k, Initial residual = 0.027905, Final residual = 6.76555e-06, No Iterations 17
DILUPBiCG:  Solving for T, Initial residual = 0.00144403, Final residual = 9.088e-05, No Iterations 3
ExecutionTime = 7.06 s  ClockTime = 7 s

Time = 30

smoothSolver:  Solving for Ux, Initial residual = 0.0111326, Final residual = 6.36743e-06, No Iterations 16
smoothSolver:  Solving for Uy, Initial residual = 0.0330215, Final residual = 8.90154e-06, No Iterations 18
GAMG:  Solving for p, Initial residual = 0.0322314, Final residual = 9.34231e-07, No Iterations 15
time step continuity errors : sum local = 6.23468e-05, global = -1.04956e-05, cumulative = -0.000157198
DILUPBiCG:  Solving for T, Initial residual = 0.00171806, Final residual = 0.000101829, No Iterations 3
smoothSolver:  Solving for epsilon, Initial residual = 0.00560616, Final residual = 6.25642e-06, No Iterations 12
smoothSolver:  Solving for k, Initial residual = 0.0269205, Final residual = 6.60793e-06, No Iterations 17
DILUPBiCG:  Solving for T, Initial residual = 0.00143164, Final residual = 9.07199e-05, No Iterations 3
ExecutionTime = 7.24 s  ClockTime = 7 s

Time = 31

smoothSolver:  Solving for Ux, Initial residual = 0.0105453, Final residual = 9.50082e-06, No Iterations 15
smoothSolver:  Solving for Uy, Initial residual = 0.032891, Final residual = 8.97142e-06, No Iterations 18
GAMG:  Solving for p, Initial residual = 0.0319092, Final residual = 8.58435e-07, No Iterations 15
time step continuity errors : sum local = 5.58785e-05, global = -9.10304e-06, cumulative = -0.000166301
DILUPBiCG:  Solving for T, Initial residual = 0.00170377, Final residual = 0.000104803, No Iterations 3
smoothSolver:  Solving for epsilon, Initial residual = 0.00552563, Final residual = 6.31398e-06, No Iterations 12
smoothSolver:  Solving for k, Initial residual = 0.0260113, Final residual = 6.45775e-06, No Iterations 17
DILUPBiCG:  Solving for T, Initial residual = 0.00141897, Final residual = 9.03349e-05, No Iterations 3
ExecutionTime = 7.42 s  ClockTime = 7 s

Time = 32

smoothSolver:  Solving for Ux, Initial residual = 0.0100142, Final residual = 9.03209e-06, No Iterations 15
smoothSolver:  Solving for Uy, Initial residual = 0.0327001, Final residual = 9.04128e-06, No Iterations 18
GAMG:  Solving for p, Initial residual = 0.0316297, Final residual = 6.93882e-07, No Iterations 15
time step continuity errors : sum local = 4.41339e-05, global = -7.08033e-06, cumulative = -0.000173381
DILUPBiCG:  Solving for T, Initial residual = 0.00168702, Final residual = 0.000109236, No Iterations 3
smoothSolver:  Solving for epsilon, Initial residual = 0.00545646, Final residual = 6.36557e-06, No Iterations 12
smoothSolver:  Solving for k, Initial residual = 0.0251657, Final residual = 6.31691e-06, No Iterations 17
DILUPBiCG:  Solving for T, Initial residual = 0.00141246, Final residual = 8.96467e-05, No Iterations 3
ExecutionTime = 7.61 s  ClockTime = 7 s

Time = 33

smoothSolver:  Solving for Ux, Initial residual = 0.00953419, Final residual = 8.61157e-06, No Iterations 15
smoothSolver:  Solving for Uy, Initial residual = 0.0324383, Final residual = 9.10872e-06, No Iterations 18
GAMG:  Solving for p, Initial residual = 0.0313789, Final residual = 9.94266e-07, No Iterations 13
time step continuity errors : sum local = 6.19184e-05, global = 8.2864e-06, cumulative = -0.000165095
DILUPBiCG:  Solving for T, Initial residual = 0.00167983, Final residual = 5.06432e-05, No Iterations 4
smoothSolver:  Solving for epsilon, Initial residual = 0.00539783, Final residual = 6.4093e-06, No Iterations 12
smoothSolver:  Solving for k, Initial residual = 0.0243858, Final residual = 6.18668e-06, No Iterations 17
DILUPBiCG:  Solving for T, Initial residual = 0.00140771, Final residual = 8.59723e-05, No Iterations 3
ExecutionTime = 7.79 s  ClockTime = 7 s

Time = 34

smoothSolver:  Solving for Ux, Initial residual = 0.00909898, Final residual = 8.24052e-06, No Iterations 15
smoothSolver:  Solving for Uy, Initial residual = 0.0321191, Final residual = 9.1682e-06, No Iterations 18
GAMG:  Solving for p, Initial residual = 0.0311256, Final residual = 8.63553e-07, No Iterations 15
time step continuity errors : sum local = 5.27603e-05, global = 9.39007e-06, cumulative = -0.000155705
DILUPBiCG:  Solving for T, Initial residual = 0.00166543, Final residual = 0.000122676, No Iterations 3
smoothSolver:  Solving for epsilon, Initial residual = 0.00534852, Final residual = 6.446e-06, No Iterations 12
smoothSolver:  Solving for k, Initial residual = 0.0236513, Final residual = 9.80517e-06, No Iterations 16
DILUPBiCG:  Solving for T, Initial residual = 0.00141055, Final residual = 8.9495e-05, No Iterations 3
ExecutionTime = 7.97 s  ClockTime = 8 s

Time = 35

smoothSolver:  Solving for Ux, Initial residual = 0.00870639, Final residual = 7.91909e-06, No Iterations 15
smoothSolver:  Solving for Uy, Initial residual = 0.0317518, Final residual = 9.21714e-06, No Iterations 18
GAMG:  Solving for p, Initial residual = 0.030862, Final residual = 6.26905e-07, No Iterations 16
time step continuity errors : sum local = 3.76359e-05, global = -7.37017e-06, cumulative = -0.000163075
DILUPBiCG:  Solving for T, Initial residual = 0.00168887, Final residual = 0.000123041, No Iterations 3
smoothSolver:  Solving for epsilon, Initial residual = 0.00530574, Final residual = 6.47545e-06, No Iterations 12
smoothSolver:  Solving for k, Initial residual = 0.0229566, Final residual = 9.61317e-06, No Iterations 16
DILUPBiCG:  Solving for T, Initial residual = 0.00142079, Final residual = 0.000115072, No Iterations 3
ExecutionTime = 8.15 s  ClockTime = 8 s

Time = 36

smoothSolver:  Solving for Ux, Initial residual = 0.00835472, Final residual = 7.64654e-06, No Iterations 15
smoothSolver:  Solving for Uy, Initial residual = 0.0313523, Final residual = 9.25511e-06, No Iterations 18
GAMG:  Solving for p, Initial residual = 0.0306074, Final residual = 6.94125e-07, No Iterations 16
time step continuity errors : sum local = 4.1012e-05, global = -7.83484e-06, cumulative = -0.00017091
DILUPBiCG:  Solving for T, Initial residual = 0.00168942, Final residual = 7.63903e-05, No Iterations 4
smoothSolver:  Solving for epsilon, Initial residual = 0.00526274, Final residual = 6.49948e-06, No Iterations 12
smoothSolver:  Solving for k, Initial residual = 0.0222902, Final residual = 9.4363e-06, No Iterations 16
DILUPBiCG:  Solving for T, Initial residual = 0.00142377, Final residual = 0.000103539, No Iterations 3
ExecutionTime = 8.34 s  ClockTime = 8 s

Time = 37

smoothSolver:  Solving for Ux, Initial residual = 0.00804444, Final residual = 7.42092e-06, No Iterations 15
smoothSolver:  Solving for Uy, Initial residual = 0.0309504, Final residual = 9.2829e-06, No Iterations 18
GAMG:  Solving for p, Initial residual = 0.0303166, Final residual = 6.72698e-07, No Iterations 16
time step continuity errors : sum local = 3.92112e-05, global = -7.33499e-06, cumulative = -0.000178245
DILUPBiCG:  Solving for T, Initial residual = 0.00171163, Final residual = 0.000140579, No Iterations 3
smoothSolver:  Solving for epsilon, Initial residual = 0.00522549, Final residual = 6.51816e-06, No Iterations 12
smoothSolver:  Solving for k, Initial residual = 0.021654, Final residual = 9.26686e-06, No Iterations 16
DILUPBiCG:  Solving for T, Initial residual = 0.00144243, Final residual = 0.000132932, No Iterations 3
ExecutionTime = 8.53 s  ClockTime = 8 s

Time = 38

smoothSolver:  Solving for Ux, Initial residual = 0.00777895, Final residual = 7.24258e-06, No Iterations 15
smoothSolver:  Solving for Uy, Initial residual = 0.0305567, Final residual = 9.30044e-06, No Iterations 18
GAMG:  Solving for p, Initial residual = 0.0299973, Final residual = 9.56151e-07, No Iterations 15
time step continuity errors : sum local = 5.51245e-05, global = 1.00129e-05, cumulative = -0.000168232
DILUPBiCG:  Solving for T, Initial residual = 0.00172039, Final residual = 0.000122515, No Iterations 3
smoothSolver:  Solving for epsilon, Initial residual = 0.00519446, Final residual = 6.53338e-06, No Iterations 12
smoothSolver:  Solving for k, Initial residual = 0.0210455, Final residual = 9.10448e-06, No Iterations 16
DILUPBiCG:  Solving for T, Initial residual = 0.00145193, Final residual = 0.000109739, No Iterations 3
ExecutionTime = 8.71 s  ClockTime = 8 s

Time = 39

smoothSolver:  Solving for Ux, Initial residual = 0.00755896, Final residual = 7.10078e-06, No Iterations 15
smoothSolver:  Solving for Uy, Initial residual = 0.0301878, Final residual = 9.31054e-06, No Iterations 18
GAMG:  Solving for p, Initial residual = 0.02963, Final residual = 9.21523e-07, No Iterations 15
time step continuity errors : sum local = 5.26354e-05, global = 9.41015e-06, cumulative = -0.000158822
DILUPBiCG:  Solving for T, Initial residual = 0.00171277, Final residual = 6.44638e-05, No Iterations 4
smoothSolver:  Solving for epsilon, Initial residual = 0.00516821, Final residual = 6.54735e-06, No Iterations 12
smoothSolver:  Solving for k, Initial residual = 0.0204611, Final residual = 8.94761e-06, No Iterations 16
DILUPBiCG:  Solving for T, Initial residual = 0.00145561, Final residual = 4.72684e-05, No Iterations 4
ExecutionTime = 8.9 s  ClockTime = 8 s

Time = 40

smoothSolver:  Solving for Ux, Initial residual = 0.0073748, Final residual = 6.98854e-06, No Iterations 15
smoothSolver:  Solving for Uy, Initial residual = 0.0298372, Final residual = 9.31295e-06, No Iterations 18
GAMG:  Solving for p, Initial residual = 0.0291403, Final residual = 6.62256e-07, No Iterations 16
time step continuity errors : sum local = 3.76288e-05, global = -7.29755e-06, cumulative = -0.000166119
DILUPBiCG:  Solving for T, Initial residual = 0.00173048, Final residual = 0.000138348, No Iterations 3
smoothSolver:  Solving for epsilon, Initial residual = 0.00515624, Final residual = 6.56223e-06, No Iterations 12
smoothSolver:  Solving for k, Initial residual = 0.0199054, Final residual = 8.79693e-06, No Iterations 16
DILUPBiCG:  Solving for T, Initial residual = 0.00146238, Final residual = 4.92735e-05, No Iterations 4
ExecutionTime = 9.09 s  ClockTime = 9 s

Time = 41

smoothSolver:  Solving for Ux, Initial residual = 0.00722264, Final residual = 6.90022e-06, No Iterations 15
smoothSolver:  Solving for Uy, Initial residual = 0.0295066, Final residual = 9.30856e-06, No Iterations 18
GAMG:  Solving for p, Initial residual = 0.0286188, Final residual = 7.7633e-07, No Iterations 16
time step continuity errors : sum local = 4.40273e-05, global = -8.73876e-06, cumulative = -0.000174858
DILUPBiCG:  Solving for T, Initial residual = 0.00171416, Final residual = 0.000157945, No Iterations 3
smoothSolver:  Solving for epsilon, Initial residual = 0.00514038, Final residual = 6.58079e-06, No Iterations 12
smoothSolver:  Solving for k, Initial residual = 0.0193701, Final residual = 8.65179e-06, No Iterations 16
DILUPBiCG:  Solving for T, Initial residual = 0.00145532, Final residual = 0.00012887, No Iterations 3
ExecutionTime = 9.27 s  ClockTime = 9 s

Time = 42

smoothSolver:  Solving for Ux, Initial residual = 0.0070982, Final residual = 6.83391e-06, No Iterations 15
smoothSolver:  Solving for Uy, Initial residual = 0.0291993, Final residual = 9.29925e-06, No Iterations 18
GAMG:  Solving for p, Initial residual = 0.0281141, Final residual = 8.56303e-07, No Iterations 16
time step continuity errors : sum local = 4.86118e-05, global = -9.77784e-06, cumulative = -0.000184636
DILUPBiCG:  Solving for T, Initial residual = 0.00171434, Final residual = 0.000147766, No Iterations 3
smoothSolver:  Solving for epsilon, Initial residual = 0.00512443, Final residual = 6.60566e-06, No Iterations 12
smoothSolver:  Solving for k, Initial residual = 0.0188577, Final residual = 8.51259e-06, No Iterations 16
DILUPBiCG:  Solving for T, Initial residual = 0.00145614, Final residual = 0.000120378, No Iterations 3
ExecutionTime = 9.46 s  ClockTime = 9 s

Time = 43

smoothSolver:  Solving for Ux, Initial residual = 0.00699825, Final residual = 6.78546e-06, No Iterations 15
smoothSolver:  Solving for Uy, Initial residual = 0.0289113, Final residual = 9.28709e-06, No Iterations 18
GAMG:  Solving for p, Initial residual = 0.0275451, Final residual = 9.03704e-07, No Iterations 16
time step continuity errors : sum local = 5.15453e-05, global = -1.04039e-05, cumulative = -0.00019504
DILUPBiCG:  Solving for T, Initial residual = 0.00172462, Final residual = 0.000138152, No Iterations 3
smoothSolver:  Solving for epsilon, Initial residual = 0.00511229, Final residual = 6.63989e-06, No Iterations 12
smoothSolver:  Solving for k, Initial residual = 0.0183646, Final residual = 8.37995e-06, No Iterations 16
DILUPBiCG:  Solving for T, Initial residual = 0.0014693, Final residual = 0.00011419, No Iterations 3
ExecutionTime = 9.65 s  ClockTime = 9 s

Time = 44

smoothSolver:  Solving for Ux, Initial residual = 0.00691768, Final residual = 6.75276e-06, No Iterations 15
smoothSolver:  Solving for Uy, Initial residual = 0.0286417, Final residual = 9.27154e-06, No Iterations 18
GAMG:  Solving for p, Initial residual = 0.0269307, Final residual = 8.85588e-07, No Iterations 16
time step continuity errors : sum local = 5.08462e-05, global = -1.03955e-05, cumulative = -0.000205435
DILUPBiCG:  Solving for T, Initial residual = 0.00174668, Final residual = 0.000129649, No Iterations 3
smoothSolver:  Solving for epsilon, Initial residual = 0.00510473, Final residual = 6.68552e-06, No Iterations 12
smoothSolver:  Solving for k, Initial residual = 0.017889, Final residual = 8.25506e-06, No Iterations 16
DILUPBiCG:  Solving for T, Initial residual = 0.00149236, Final residual = 0.000110803, No Iterations 3
ExecutionTime = 9.84 s  ClockTime = 9 s

Time = 45

smoothSolver:  Solving for Ux, Initial residual = 0.00685463, Final residual = 6.73522e-06, No Iterations 15
smoothSolver:  Solving for Uy, Initial residual = 0.0283876, Final residual = 9.25385e-06, No Iterations 18
GAMG:  Solving for p, Initial residual = 0.0263203, Final residual = 8.1496e-07, No Iterations 16
time step continuity errors : sum local = 4.71107e-05, global = -9.84001e-06, cumulative = -0.000215275
DILUPBiCG:  Solving for T, Initial residual = 0.00177692, Final residual = 0.000123042, No Iterations 3
smoothSolver:  Solving for epsilon, Initial residual = 0.00510201, Final residual = 6.7439e-06, No Iterations 12
smoothSolver:  Solving for k, Initial residual = 0.0174311, Final residual = 8.13878e-06, No Iterations 16
DILUPBiCG:  Solving for T, Initial residual = 0.0015211, Final residual = 0.000108101, No Iterations 3
ExecutionTime = 10.02 s  ClockTime = 10 s

Time = 46

smoothSolver:  Solving for Ux, Initial residual = 0.00680452, Final residual = 6.73068e-06, No Iterations 15
smoothSolver:  Solving for Uy, Initial residual = 0.0281459, Final residual = 9.23618e-06, No Iterations 18
GAMG:  Solving for p, Initial residual = 0.025725, Final residual = 7.29544e-07, No Iterations 16
time step continuity errors : sum local = 4.2446e-05, global = -9.11071e-06, cumulative = -0.000224386
DILUPBiCG:  Solving for T, Initial residual = 0.00181207, Final residual = 0.000118769, No Iterations 3
smoothSolver:  Solving for epsilon, Initial residual = 0.00510471, Final residual = 6.81658e-06, No Iterations 12
smoothSolver:  Solving for k, Initial residual = 0.0169919, Final residual = 8.03161e-06, No Iterations 16
DILUPBiCG:  Solving for T, Initial residual = 0.00155343, Final residual = 0.000105841, No Iterations 3
ExecutionTime = 10.21 s  ClockTime = 10 s

Time = 47

smoothSolver:  Solving for Ux, Initial residual = 0.00676678, Final residual = 6.73892e-06, No Iterations 15
smoothSolver:  Solving for Uy, Initial residual = 0.0279181, Final residual = 9.21692e-06, No Iterations 18
GAMG:  Solving for p, Initial residual = 0.0251512, Final residual = 6.42229e-07, No Iterations 16
time step continuity errors : sum local = 3.75936e-05, global = -8.34086e-06, cumulative = -0.000232727
DILUPBiCG:  Solving for T, Initial residual = 0.00184953, Final residual = 0.000116444, No Iterations 3
smoothSolver:  Solving for epsilon, Initial residual = 0.00511238, Final residual = 6.90422e-06, No Iterations 12
smoothSolver:  Solving for k, Initial residual = 0.0165674, Final residual = 7.93328e-06, No Iterations 16
DILUPBiCG:  Solving for T, Initial residual = 0.00158656, Final residual = 0.000101126, No Iterations 3
ExecutionTime = 10.4 s  ClockTime = 10 s

Time = 48

smoothSolver:  Solving for Ux, Initial residual = 0.00673895, Final residual = 6.75819e-06, No Iterations 15
smoothSolver:  Solving for Uy, Initial residual = 0.0277087, Final residual = 9.19691e-06, No Iterations 18
GAMG:  Solving for p, Initial residual = 0.0246027, Final residual = 9.322e-07, No Iterations 15
time step continuity errors : sum local = 5.48741e-05, global = 7.74763e-06, cumulative = -0.000224979
DILUPBiCG:  Solving for T, Initial residual = 0.00188488, Final residual = 6.14954e-05, No Iterations 4
smoothSolver:  Solving for epsilon, Initial residual = 0.00512239, Final residual = 7.00635e-06, No Iterations 12
smoothSolver:  Solving for k, Initial residual = 0.0161604, Final residual = 7.84387e-06, No Iterations 16
DILUPBiCG:  Solving for T, Initial residual = 0.00160716, Final residual = 0.000112688, No Iterations 3
ExecutionTime = 10.58 s  ClockTime = 10 s

Time = 49

smoothSolver:  Solving for Ux, Initial residual = 0.00672025, Final residual = 6.78536e-06, No Iterations 15
smoothSolver:  Solving for Uy, Initial residual = 0.027508, Final residual = 9.17725e-06, No Iterations 18
GAMG:  Solving for p, Initial residual = 0.0240854, Final residual = 8.3372e-07, No Iterations 15
time step continuity errors : sum local = 4.93588e-05, global = 6.62915e-06, cumulative = -0.00021835
DILUPBiCG:  Solving for T, Initial residual = 0.00190901, Final residual = 0.000114541, No Iterations 3
smoothSolver:  Solving for epsilon, Initial residual = 0.0051366, Final residual = 7.12241e-06, No Iterations 12
smoothSolver:  Solving for k, Initial residual = 0.0157718, Final residual = 7.7624e-06, No Iterations 16
DILUPBiCG:  Solving for T, Initial residual = 0.00163664, Final residual = 0.000109966, No Iterations 3
ExecutionTime = 10.77 s  ClockTime = 10 s

Time = 50

smoothSolver:  Solving for Ux, Initial residual = 0.0067086, Final residual = 6.81566e-06, No Iterations 15
smoothSolver:  Solving for Uy, Initial residual = 0.0273221, Final residual = 9.15825e-06, No Iterations 18
GAMG:  Solving for p, Initial residual = 0.0235858, Final residual = 7.80313e-07, No Iterations 15
time step continuity errors : sum local = 4.64438e-05, global = 6.04524e-06, cumulative = -0.000212305
DILUPBiCG:  Solving for T, Initial residual = 0.0019437, Final residual = 0.000117369, No Iterations 3
smoothSolver:  Solving for epsilon, Initial residual = 0.00515418, Final residual = 7.25149e-06, No Iterations 12
smoothSolver:  Solving for k, Initial residual = 0.0154029, Final residual = 7.68878e-06, No Iterations 16
DILUPBiCG:  Solving for T, Initial residual = 0.00166675, Final residual = 0.000112265, No Iterations 3
ExecutionTime = 10.98 s  ClockTime = 11 s

Time = 51

smoothSolver:  Solving for Ux, Initial residual = 0.00670204, Final residual = 6.84726e-06, No Iterations 15
smoothSolver:  Solving for Uy, Initial residual = 0.0271453, Final residual = 9.13871e-06, No Iterations 18
GAMG:  Solving for p, Initial residual = 0.0231107, Final residual = 7.71581e-07, No Iterations 15
time step continuity errors : sum local = 4.61501e-05, global = 5.94464e-06, cumulative = -0.00020636
DILUPBiCG:  Solving for T, Initial residual = 0.00197586, Final residual = 0.000124078, No Iterations 3
smoothSolver:  Solving for epsilon, Initial residual = 0.00517548, Final residual = 7.39241e-06, No Iterations 12
smoothSolver:  Solving for k, Initial residual = 0.0150551, Final residual = 7.62268e-06, No Iterations 16
DILUPBiCG:  Solving for T, Initial residual = 0.00169618, Final residual = 3.32245e-05, No Iterations 5
ExecutionTime = 11.17 s  ClockTime = 11 s

Time = 52

smoothSolver:  Solving for Ux, Initial residual = 0.00670038, Final residual = 6.87838e-06, No Iterations 15
smoothSolver:  Solving for Uy, Initial residual = 0.0269783, Final residual = 9.12018e-06, No Iterations 18
GAMG:  Solving for p, Initial residual = 0.0226701, Final residual = 8.04875e-07, No Iterations 15
time step continuity errors : sum local = 4.83605e-05, global = 6.27422e-06, cumulative = -0.000200086
DILUPBiCG:  Solving for T, Initial residual = 0.00199115, Final residual = 0.000114764, No Iterations 3
smoothSolver:  Solving for epsilon, Initial residual = 0.00519972, Final residual = 7.54413e-06, No Iterations 12
smoothSolver:  Solving for k, Initial residual = 0.0147288, Final residual = 7.56347e-06, No Iterations 16
DILUPBiCG:  Solving for T, Initial residual = 0.00169869, Final residual = 0.00013835, No Iterations 3
ExecutionTime = 11.37 s  ClockTime = 11 s

Time = 53

smoothSolver:  Solving for Ux, Initial residual = 0.00670093, Final residual = 6.90835e-06, No Iterations 15
smoothSolver:  Solving for Uy, Initial residual = 0.0268273, Final residual = 9.10245e-06, No Iterations 18
GAMG:  Solving for p, Initial residual = 0.0222533, Final residual = 8.76382e-07, No Iterations 15
time step continuity errors : sum local = 5.28725e-05, global = 7.00791e-06, cumulative = -0.000193078
DILUPBiCG:  Solving for T, Initial residual = 0.00200516, Final residual = 0.000112944, No Iterations 3
smoothSolver:  Solving for epsilon, Initial residual = 0.00522763, Final residual = 7.70563e-06, No Iterations 12
smoothSolver:  Solving for k, Initial residual = 0.0144213, Final residual = 7.51054e-06, No Iterations 16
DILUPBiCG:  Solving for T, Initial residual = 0.00171967, Final residual = 0.000140132, No Iterations 3
ExecutionTime = 11.57 s  ClockTime = 11 s

Time = 54

smoothSolver:  Solving for Ux, Initial residual = 0.00670252, Final residual = 6.93713e-06, No Iterations 15
smoothSolver:  Solving for Uy, Initial residual = 0.0266855, Final residual = 9.08623e-06, No Iterations 18
GAMG:  Solving for p, Initial residual = 0.0218474, Final residual = 9.69412e-07, No Iterations 15
time step continuity errors : sum local = 5.87081e-05, global = 8.01629e-06, cumulative = -0.000185062
DILUPBiCG:  Solving for T, Initial residual = 0.00203844, Final residual = 0.000116371, No Iterations 3
smoothSolver:  Solving for epsilon, Initial residual = 0.00525894, Final residual = 7.87585e-06, No Iterations 12
smoothSolver:  Solving for k, Initial residual = 0.0141345, Final residual = 7.4638e-06, No Iterations 16
DILUPBiCG:  Solving for T, Initial residual = 0.00174606, Final residual = 0.000139442, No Iterations 3
ExecutionTime = 11.75 s  ClockTime = 11 s

Time = 55

smoothSolver:  Solving for Ux, Initial residual = 0.00670438, Final residual = 6.96324e-06, No Iterations 15
smoothSolver:  Solving for Uy, Initial residual = 0.0265569, Final residual = 9.07102e-06, No Iterations 18
GAMG:  Solving for p, Initial residual = 0.021457, Final residual = 6.31666e-07, No Iterations 16
time step continuity errors : sum local = 3.83899e-05, global = -8.13029e-06, cumulative = -0.000193192
DILUPBiCG:  Solving for T, Initial residual = 0.00209365, Final residual = 7.18901e-05, No Iterations 4
smoothSolver:  Solving for epsilon, Initial residual = 0.005292, Final residual = 8.05374e-06, No Iterations 12
smoothSolver:  Solving for k, Initial residual = 0.0138664, Final residual = 7.42248e-06, No Iterations 16
DILUPBiCG:  Solving for T, Initial residual = 0.00178077, Final residual = 5.39842e-05, No Iterations 4
ExecutionTime = 11.94 s  ClockTime = 12 s

Time = 56

smoothSolver:  Solving for Ux, Initial residual = 0.00670555, Final residual = 6.98707e-06, No Iterations 15
smoothSolver:  Solving for Uy, Initial residual = 0.0264399, Final residual = 9.05861e-06, No Iterations 18
GAMG:  Solving for p, Initial residual = 0.0210728, Final residual = 6.48363e-07, No Iterations 16
time step continuity errors : sum local = 3.95311e-05, global = -8.07855e-06, cumulative = -0.000201271
DILUPBiCG:  Solving for T, Initial residual = 0.00209763, Final residual = 0.000203166, No Iterations 3
smoothSolver:  Solving for epsilon, Initial residual = 0.0053271, Final residual = 8.23926e-06, No Iterations 12
smoothSolver:  Solving for k, Initial residual = 0.0136149, Final residual = 7.38622e-06, No Iterations 16
DILUPBiCG:  Solving for T, Initial residual = 0.001809, Final residual = 4.88011e-05, No Iterations 4
ExecutionTime = 12.13 s  ClockTime = 12 s

Time = 57

smoothSolver:  Solving for Ux, Initial residual = 0.00670539, Final residual = 7.00912e-06, No Iterations 15
smoothSolver:  Solving for Uy, Initial residual = 0.0263362, Final residual = 9.04883e-06, No Iterations 18
GAMG:  Solving for p, Initial residual = 0.0207015, Final residual = 6.10404e-07, No Iterations 16
time step continuity errors : sum local = 3.73208e-05, global = -7.42388e-06, cumulative = -0.000208694
DILUPBiCG:  Solving for T, Initial residual = 0.00212617, Final residual = 6.15343e-05, No Iterations 4
smoothSolver:  Solving for epsilon, Initial residual = 0.00536389, Final residual = 8.43107e-06, No Iterations 12
smoothSolver:  Solving for k, Initial residual = 0.0133805, Final residual = 7.35478e-06, No Iterations 16
DILUPBiCG:  Solving for T, Initial residual = 0.00181879, Final residual = 5.01257e-05, No Iterations 4
ExecutionTime = 12.32 s  ClockTime = 12 s

Time = 58

smoothSolver:  Solving for Ux, Initial residual = 0.00670286, Final residual = 7.02641e-06, No Iterations 15
smoothSolver:  Solving for Uy, Initial residual = 0.0262444, Final residual = 9.04138e-06, No Iterations 18
GAMG:  Solving for p, Initial residual = 0.0203354, Final residual = 8.7151e-07, No Iterations 15
time step continuity errors : sum local = 5.34229e-05, global = 7.16264e-06, cumulative = -0.000201532
DILUPBiCG:  Solving for T, Initial residual = 0.00215323, Final residual = 5.20876e-05, No Iterations 5
smoothSolver:  Solving for epsilon, Initial residual = 0.00540264, Final residual = 8.62929e-06, No Iterations 12
smoothSolver:  Solving for k, Initial residual = 0.0131613, Final residual = 7.32831e-06, No Iterations 16
DILUPBiCG:  Solving for T, Initial residual = 0.00183239, Final residual = 5.42484e-05, No Iterations 4
ExecutionTime = 12.5 s  ClockTime = 12 s

Time = 59

smoothSolver:  Solving for Ux, Initial residual = 0.00669817, Final residual = 7.03947e-06, No Iterations 15
smoothSolver:  Solving for Uy, Initial residual = 0.0261679, Final residual = 9.03869e-06, No Iterations 18
GAMG:  Solving for p, Initial residual = 0.0199618, Final residual = 6.93868e-07, No Iterations 15
time step continuity errors : sum local = 4.26326e-05, global = 5.18071e-06, cumulative = -0.000196351
DILUPBiCG:  Solving for T, Initial residual = 0.0021579, Final residual = 0.00016866, No Iterations 3
smoothSolver:  Solving for epsilon, Initial residual = 0.00544288, Final residual = 8.83343e-06, No Iterations 12
smoothSolver:  Solving for k, Initial residual = 0.012957, Final residual = 7.30642e-06, No Iterations 16
DILUPBiCG:  Solving for T, Initial residual = 0.00185693, Final residual = 6.05003e-05, No Iterations 4
ExecutionTime = 12.69 s  ClockTime = 12 s

Time = 60

smoothSolver:  Solving for Ux, Initial residual = 0.00669121, Final residual = 7.04851e-06, No Iterations 15
smoothSolver:  Solving for Uy, Initial residual = 0.0261021, Final residual = 9.0393e-06, No Iterations 18
GAMG:  Solving for p, Initial residual = 0.0196062, Final residual = 8.91402e-07, No Iterations 14
time step continuity errors : sum local = 5.48868e-05, global = -9.21018e-06, cumulative = -0.000205561
DILUPBiCG:  Solving for T, Initial residual = 0.0022083, Final residual = 9.00943e-05, No Iterations 4
smoothSolver:  Solving for epsilon, Initial residual = 0.00548599, Final residual = 9.04339e-06, No Iterations 12
smoothSolver:  Solving for k, Initial residual = 0.0127674, Final residual = 7.28916e-06, No Iterations 16
DILUPBiCG:  Solving for T, Initial residual = 0.00187804, Final residual = 6.67225e-05, No Iterations 4
ExecutionTime = 12.87 s  ClockTime = 12 s

Time = 61

smoothSolver:  Solving for Ux, Initial residual = 0.00668184, Final residual = 7.05283e-06, No Iterations 15
smoothSolver:  Solving for Uy, Initial residual = 0.0260517, Final residual = 9.04508e-06, No Iterations 18
GAMG:  Solving for p, Initial residual = 0.0192554, Final residual = 6.83823e-07, No Iterations 14
time step continuity errors : sum local = 4.21892e-05, global = -4.06186e-06, cumulative = -0.000209623
DILUPBiCG:  Solving for T, Initial residual = 0.00223237, Final residual = 0.000165924, No Iterations 3
smoothSolver:  Solving for epsilon, Initial residual = 0.00553396, Final residual = 9.25813e-06, No Iterations 12
smoothSolver:  Solving for k, Initial residual = 0.0125919, Final residual = 7.27675e-06, No Iterations 16
DILUPBiCG:  Solving for T, Initial residual = 0.00191708, Final residual = 6.5023e-05, No Iterations 4
ExecutionTime = 13.06 s  ClockTime = 13 s

Time = 62

smoothSolver:  Solving for Ux, Initial residual = 0.00667044, Final residual = 7.05401e-06, No Iterations 15
smoothSolver:  Solving for Uy, Initial residual = 0.0260144, Final residual = 9.05597e-06, No Iterations 18
GAMG:  Solving for p, Initial residual = 0.0189091, Final residual = 8.01052e-07, No Iterations 14
time step continuity errors : sum local = 4.95131e-05, global = -8.11385e-06, cumulative = -0.000217737
DILUPBiCG:  Solving for T, Initial residual = 0.00227957, Final residual = 8.79972e-05, No Iterations 4
smoothSolver:  Solving for epsilon, Initial residual = 0.00558611, Final residual = 9.47591e-06, No Iterations 12
smoothSolver:  Solving for k, Initial residual = 0.0124308, Final residual = 7.26998e-06, No Iterations 16
DILUPBiCG:  Solving for T, Initial residual = 0.00194186, Final residual = 6.99524e-05, No Iterations 4
ExecutionTime = 13.24 s  ClockTime = 13 s

Time = 63

smoothSolver:  Solving for Ux, Initial residual = 0.00665663, Final residual = 7.05069e-06, No Iterations 15
smoothSolver:  Solving for Uy, Initial residual = 0.0259885, Final residual = 9.07248e-06, No Iterations 18
GAMG:  Solving for p, Initial residual = 0.0185747, Final residual = 6.69967e-07, No Iterations 15
time step continuity errors : sum local = 4.14732e-05, global = 6.6598e-06, cumulative = -0.000211077
DILUPBiCG:  Solving for T, Initial residual = 0.00231055, Final residual = 0.000123651, No Iterations 4
smoothSolver:  Solving for epsilon, Initial residual = 0.00563932, Final residual = 9.69291e-06, No Iterations 12
smoothSolver:  Solving for k, Initial residual = 0.0122833, Final residual = 7.26885e-06, No Iterations 16
DILUPBiCG:  Solving for T, Initial residual = 0.00196175, Final residual = 7.88507e-05, No Iterations 4
ExecutionTime = 13.42 s  ClockTime = 13 s

Time = 64

smoothSolver:  Solving for Ux, Initial residual = 0.0066405, Final residual = 7.04304e-06, No Iterations 15
smoothSolver:  Solving for Uy, Initial residual = 0.0259751, Final residual = 9.09539e-06, No Iterations 18
GAMG:  Solving for p, Initial residual = 0.0182347, Final residual = 7.9419e-07, No Iterations 15
time step continuity errors : sum local = 4.92313e-05, global = 8.32303e-06, cumulative = -0.000202754
DILUPBiCG:  Solving for T, Initial residual = 0.00232413, Final residual = 0.000116093, No Iterations 4
smoothSolver:  Solving for epsilon, Initial residual = 0.0056924, Final residual = 9.90786e-06, No Iterations 12
smoothSolver:  Solving for k, Initial residual = 0.0121482, Final residual = 7.27385e-06, No Iterations 16
DILUPBiCG:  Solving for T, Initial residual = 0.00197538, Final residual = 7.83347e-05, No Iterations 4
ExecutionTime = 13.63 s  ClockTime = 13 s

Time = 65

smoothSolver:  Solving for Ux, Initial residual = 0.00662262, Final residual = 7.03305e-06, No Iterations 15
smoothSolver:  Solving for Uy, Initial residual = 0.0259754, Final residual = 9.12529e-06, No Iterations 18
GAMG:  Solving for p, Initial residual = 0.0179096, Final residual = 9.11361e-07, No Iterations 15
time step continuity errors : sum local = 5.65666e-05, global = 9.98765e-06, cumulative = -0.000192766
DILUPBiCG:  Solving for T, Initial residual = 0.0023466, Final residual = 0.000142138, No Iterations 4
smoothSolver:  Solving for epsilon, Initial residual = 0.00574577, Final residual = 6.09912e-06, No Iterations 13
smoothSolver:  Solving for k, Initial residual = 0.0120283, Final residual = 7.28347e-06, No Iterations 16
DILUPBiCG:  Solving for T, Initial residual = 0.00199517, Final residual = 8.74822e-05, No Iterations 4
ExecutionTime = 13.83 s  ClockTime = 13 s

Time = 66

smoothSolver:  Solving for Ux, Initial residual = 0.00660285, Final residual = 7.01985e-06, No Iterations 15
smoothSolver:  Solving for Uy, Initial residual = 0.0259874, Final residual = 9.16291e-06, No Iterations 18
GAMG:  Solving for p, Initial residual = 0.0175915, Final residual = 6.61234e-07, No Iterations 16
time step continuity errors : sum local = 4.10927e-05, global = -7.43473e-06, cumulative = -0.000200201
DILUPBiCG:  Solving for T, Initial residual = 0.00237464, Final residual = 0.000187877, No Iterations 4
smoothSolver:  Solving for epsilon, Initial residual = 0.00579983, Final residual = 6.22882e-06, No Iterations 13
smoothSolver:  Solving for k, Initial residual = 0.0119218, Final residual = 7.29662e-06, No Iterations 16
DILUPBiCG:  Solving for T, Initial residual = 0.00202028, Final residual = 8.85052e-05, No Iterations 4
ExecutionTime = 14.03 s  ClockTime = 14 s

Time = 67

smoothSolver:  Solving for Ux, Initial residual = 0.00658161, Final residual = 7.00466e-06, No Iterations 15
smoothSolver:  Solving for Uy, Initial residual = 0.0260172, Final residual = 9.2101e-06, No Iterations 18
GAMG:  Solving for p, Initial residual = 0.0172909, Final residual = 7.42433e-07, No Iterations 16
time step continuity errors : sum local = 4.61947e-05, global = -8.3704e-06, cumulative = -0.000208572
DILUPBiCG:  Solving for T, Initial residual = 0.00240556, Final residual = 0.000168378, No Iterations 4
smoothSolver:  Solving for epsilon, Initial residual = 0.00585516, Final residual = 6.35714e-06, No Iterations 13
smoothSolver:  Solving for k, Initial residual = 0.011828, Final residual = 7.31257e-06, No Iterations 16
DILUPBiCG:  Solving for T, Initial residual = 0.00204771, Final residual = 0.00010329, No Iterations 4
ExecutionTime = 14.22 s  ClockTime = 14 s

Time = 68

smoothSolver:  Solving for Ux, Initial residual = 0.00655856, Final residual = 6.98506e-06, No Iterations 15
smoothSolver:  Solving for Uy, Initial residual = 0.0260631, Final residual = 9.2671e-06, No Iterations 18
GAMG:  Solving for p, Initial residual = 0.0170057, Final residual = 8.27146e-07, No Iterations 16
time step continuity errors : sum local = 5.15164e-05, global = -9.37083e-06, cumulative = -0.000217942
DILUPBiCG:  Solving for T, Initial residual = 0.00244412, Final residual = 0.000159984, No Iterations 5
smoothSolver:  Solving for epsilon, Initial residual = 0.00590877, Final residual = 6.48418e-06, No Iterations 13
smoothSolver:  Solving for k, Initial residual = 0.0117468, Final residual = 7.33014e-06, No Iterations 16
DILUPBiCG:  Solving for T, Initial residual = 0.00208832, Final residual = 0.000101547, No Iterations 4
ExecutionTime = 14.42 s  ClockTime = 14 s

Time = 69

smoothSolver:  Solving for Ux, Initial residual = 0.00653417, Final residual = 6.9625e-06, No Iterations 15
smoothSolver:  Solving for Uy, Initial residual = 0.0261278, Final residual = 9.33506e-06, No Iterations 18
GAMG:  Solving for p, Initial residual = 0.0167389, Final residual = 9.1402e-07, No Iterations 16
time step continuity errors : sum local = 5.69834e-05, global = -1.04153e-05, cumulative = -0.000228358
DILUPBiCG:  Solving for T, Initial residual = 0.00248338, Final residual = 9.59378e-05, No Iterations 5
smoothSolver:  Solving for epsilon, Initial residual = 0.00596086, Final residual = 6.60911e-06, No Iterations 13
smoothSolver:  Solving for k, Initial residual = 0.0116756, Final residual = 7.34864e-06, No Iterations 16
DILUPBiCG:  Solving for T, Initial residual = 0.00211784, Final residual = 9.53339e-05, No Iterations 4
ExecutionTime = 14.62 s  ClockTime = 14 s

Time = 70

smoothSolver:  Solving for Ux, Initial residual = 0.0065082, Final residual = 6.93628e-06, No Iterations 15
smoothSolver:  Solving for Uy, Initial residual = 0.0262126, Final residual = 9.41525e-06, No Iterations 18
GAMG:  Solving for p, Initial residual = 0.0164876, Final residual = 6.23336e-07, No Iterations 17
time step continuity errors : sum local = 3.8896e-05, global = 7.70678e-06, cumulative = -0.000220651
DILUPBiCG:  Solving for T, Initial residual = 0.00253165, Final residual = 0.000184705, No Iterations 4
smoothSolver:  Solving for epsilon, Initial residual = 0.00601208, Final residual = 6.73155e-06, No Iterations 13
smoothSolver:  Solving for k, Initial residual = 0.0116107, Final residual = 7.3674e-06, No Iterations 16
DILUPBiCG:  Solving for T, Initial residual = 0.00215718, Final residual = 0.000106501, No Iterations 4
ExecutionTime = 14.82 s  ClockTime = 14 s

Time = 71

smoothSolver:  Solving for Ux, Initial residual = 0.00648065, Final residual = 6.90683e-06, No Iterations 15
smoothSolver:  Solving for Uy, Initial residual = 0.0263202, Final residual = 9.50968e-06, No Iterations 18
GAMG:  Solving for p, Initial residual = 0.0162801, Final residual = 6.73215e-07, No Iterations 17
time step continuity errors : sum local = 4.20443e-05, global = 8.34078e-06, cumulative = -0.00021231
DILUPBiCG:  Solving for T, Initial residual = 0.00256149, Final residual = 0.000221927, No Iterations 4
smoothSolver:  Solving for epsilon, Initial residual = 0.00606149, Final residual = 6.85101e-06, No Iterations 13
smoothSolver:  Solving for k, Initial residual = 0.0115486, Final residual = 7.38584e-06, No Iterations 16
DILUPBiCG:  Solving for T, Initial residual = 0.00219238, Final residual = 0.000112003, No Iterations 4
ExecutionTime = 15.04 s  ClockTime = 15 s

Time = 72

smoothSolver:  Solving for Ux, Initial residual = 0.0064514, Final residual = 6.87233e-06, No Iterations 15
smoothSolver:  Solving for Uy, Initial residual = 0.0264535, Final residual = 9.61917e-06, No Iterations 18
GAMG:  Solving for p, Initial residual = 0.0160986, Final residual = 7.26478e-07, No Iterations 17
time step continuity errors : sum local = 4.5412e-05, global = 8.97698e-06, cumulative = -0.000203333
DILUPBiCG:  Solving for T, Initial residual = 0.00260809, Final residual = 0.000112779, No Iterations 5
smoothSolver:  Solving for epsilon, Initial residual = 0.0061101, Final residual = 6.96692e-06, No Iterations 13
smoothSolver:  Solving for k, Initial residual = 0.0114891, Final residual = 7.40293e-06, No Iterations 16
DILUPBiCG:  Solving for T, Initial residual = 0.00223575, Final residual = 0.000104805, No Iterations 4
ExecutionTime = 15.24 s  ClockTime = 15 s

Time = 73

smoothSolver:  Solving for Ux, Initial residual = 0.00642124, Final residual = 6.83388e-06, No Iterations 15
smoothSolver:  Solving for Uy, Initial residual = 0.0266096, Final residual = 9.74425e-06, No Iterations 18
GAMG:  Solving for p, Initial residual = 0.0159607, Final residual = 7.77005e-07, No Iterations 17
time step continuity errors : sum local = 4.8608e-05, global = 9.57071e-06, cumulative = -0.000193763
DILUPBiCG:  Solving for T, Initial residual = 0.00266035, Final residual = 0.000262484, No Iterations 4
smoothSolver:  Solving for epsilon, Initial residual = 0.00615931, Final residual = 7.0783e-06, No Iterations 13
smoothSolver:  Solving for k, Initial residual = 0.011434, Final residual = 7.41734e-06, No Iterations 16
DILUPBiCG:  Solving for T, Initial residual = 0.00229113, Final residual = 0.000112523, No Iterations 4
ExecutionTime = 15.43 s  ClockTime = 15 s

Time = 74

smoothSolver:  Solving for Ux, Initial residual = 0.00638972, Final residual = 6.79156e-06, No Iterations 15
smoothSolver:  Solving for Uy, Initial residual = 0.0267927, Final residual = 9.88512e-06, No Iterations 18
GAMG:  Solving for p, Initial residual = 0.0158325, Final residual = 8.24668e-07, No Iterations 17
time step continuity errors : sum local = 5.16349e-05, global = 1.01448e-05, cumulative = -0.000183618
DILUPBiCG:  Solving for T, Initial residual = 0.00271292, Final residual = 0.000247384, No Iterations 4
smoothSolver:  Solving for epsilon, Initial residual = 0.00620731, Final residual = 7.18503e-06, No Iterations 13
smoothSolver:  Solving for k, Initial residual = 0.0113836, Final residual = 7.4289e-06, No Iterations 16
DILUPBiCG:  Solving for T, Initial residual = 0.00234487, Final residual = 0.000121787, No Iterations 4
ExecutionTime = 15.61 s  ClockTime = 15 s

Time = 75

smoothSolver:  Solving for Ux, Initial residual = 0.00635682, Final residual = 6.74457e-06, No Iterations 15
smoothSolver:  Solving for Uy, Initial residual = 0.0270025, Final residual = 6.57435e-06, No Iterations 19
GAMG:  Solving for p, Initial residual = 0.0157123, Final residual = 8.70817e-07, No Iterations 17
time step continuity errors : sum local = 5.4576e-05, global = 1.0717e-05, cumulative = -0.000172901
DILUPBiCG:  Solving for T, Initial residual = 0.00277149, Final residual = 0.000221652, No Iterations 4
smoothSolver:  Solving for epsilon, Initial residual = 0.00625341, Final residual = 7.28548e-06, No Iterations 13
smoothSolver:  Solving for k, Initial residual = 0.0113379, Final residual = 7.43702e-06, No Iterations 16
DILUPBiCG:  Solving for T, Initial residual = 0.00240105, Final residual = 0.000121448, No Iterations 4
ExecutionTime = 15.8 s  ClockTime = 15 s

Time = 76

smoothSolver:  Solving for Ux, Initial residual = 0.00632235, Final residual = 6.69353e-06, No Iterations 15
smoothSolver:  Solving for Uy, Initial residual = 0.0272395, Final residual = 6.68867e-06, No Iterations 19
GAMG:  Solving for p, Initial residual = 0.0156004, Final residual = 9.16082e-07, No Iterations 17
time step continuity errors : sum local = 5.74761e-05, global = 1.13046e-05, cumulative = -0.000161596
DILUPBiCG:  Solving for T, Initial residual = 0.00281572, Final residual = 0.000210892, No Iterations 4
smoothSolver:  Solving for epsilon, Initial residual = 0.00630059, Final residual = 7.37767e-06, No Iterations 13
smoothSolver:  Solving for k, Initial residual = 0.0112969, Final residual = 7.44162e-06, No Iterations 16
DILUPBiCG:  Solving for T, Initial residual = 0.00243934, Final residual = 0.000140434, No Iterations 4
ExecutionTime = 15.99 s  ClockTime = 16 s

Time = 77

smoothSolver:  Solving for Ux, Initial residual = 0.00628488, Final residual = 6.63947e-06, No Iterations 15
smoothSolver:  Solving for Uy, Initial residual = 0.0275054, Final residual = 6.80951e-06, No Iterations 19
GAMG:  Solving for p, Initial residual = 0.0154902, Final residual = 9.60079e-07, No Iterations 17
time step continuity errors : sum local = 6.0312e-05, global = 1.1907e-05, cumulative = -0.000149689
DILUPBiCG:  Solving for T, Initial residual = 0.00281228, Final residual = 0.000202544, No Iterations 4
smoothSolver:  Solving for epsilon, Initial residual = 0.00634243, Final residual = 7.45909e-06, No Iterations 13
smoothSolver:  Solving for k, Initial residual = 0.011259, Final residual = 7.44345e-06, No Iterations 16
DILUPBiCG:  Solving for T, Initial residual = 0.00243153, Final residual = 0.000176021, No Iterations 4
ExecutionTime = 16.18 s  ClockTime = 16 s

Time = 78

smoothSolver:  Solving for Ux, Initial residual = 0.00624498, Final residual = 6.58229e-06, No Iterations 15
smoothSolver:  Solving for Uy, Initial residual = 0.0278014, Final residual = 6.9361e-06, No Iterations 19
GAMG:  Solving for p, Initial residual = 0.0153733, Final residual = 9.99575e-07, No Iterations 17
time step continuity errors : sum local = 6.28756e-05, global = 1.24933e-05, cumulative = -0.000137196
DILUPBiCG:  Solving for T, Initial residual = 0.0028799, Final residual = 0.000203866, No Iterations 4
smoothSolver:  Solving for epsilon, Initial residual = 0.00637783, Final residual = 7.52797e-06, No Iterations 13
smoothSolver:  Solving for k, Initial residual = 0.0112233, Final residual = 7.44242e-06, No Iterations 16
DILUPBiCG:  Solving for T, Initial residual = 0.00248232, Final residual = 0.00022383, No Iterations 4
ExecutionTime = 16.37 s  ClockTime = 16 s

Time = 79

smoothSolver:  Solving for Ux, Initial residual = 0.00620149, Final residual = 6.52443e-06, No Iterations 15
smoothSolver:  Solving for Uy, Initial residual = 0.0281279, Final residual = 7.06905e-06, No Iterations 19
GAMG:  Solving for p, Initial residual = 0.0152654, Final residual = 6.73438e-07, No Iterations 18
time step continuity errors : sum local = 4.24209e-05, global = -7.72704e-06, cumulative = -0.000144923
DILUPBiCG:  Solving for T, Initial residual = 0.00297197, Final residual = 0.000231034, No Iterations 4
smoothSolver:  Solving for epsilon, Initial residual = 0.00640484, Final residual = 7.5837e-06, No Iterations 13
smoothSolver:  Solving for k, Initial residual = 0.0111889, Final residual = 7.44126e-06, No Iterations 16
DILUPBiCG:  Solving for T, Initial residual = 0.00255614, Final residual = 0.000247291, No Iterations 3
ExecutionTime = 16.57 s  ClockTime = 16 s

Time = 80

smoothSolver:  Solving for Ux, Initial residual = 0.00615517, Final residual = 6.46693e-06, No Iterations 15
smoothSolver:  Solving for Uy, Initial residual = 0.0284845, Final residual = 7.20839e-06, No Iterations 19
GAMG:  Solving for p, Initial residual = 0.0151585, Final residual = 6.77949e-07, No Iterations 18
time step continuity errors : sum local = 4.27766e-05, global = -7.83302e-06, cumulative = -0.000152756
DILUPBiCG:  Solving for T, Initial residual = 0.00302583, Final residual = 0.000106185, No Iterations 6
smoothSolver:  Solving for epsilon, Initial residual = 0.00641663, Final residual = 7.62546e-06, No Iterations 13
smoothSolver:  Solving for k, Initial residual = 0.011154, Final residual = 7.44146e-06, No Iterations 16
DILUPBiCG:  Solving for T, Initial residual = 0.00260346, Final residual = 0.000198355, No Iterations 3
ExecutionTime = 16.76 s  ClockTime = 16 s

Time = 81

smoothSolver:  Solving for Ux, Initial residual = 0.0061054, Final residual = 9.96665e-06, No Iterations 14
smoothSolver:  Solving for Uy, Initial residual = 0.0288752, Final residual = 7.35485e-06, No Iterations 19
GAMG:  Solving for p, Initial residual = 0.0150415, Final residual = 6.53634e-07, No Iterations 18
time step continuity errors : sum local = 4.13242e-05, global = -7.59278e-06, cumulative = -0.000160349
DILUPBiCG:  Solving for T, Initial residual = 0.00307366, Final residual = 0.000285654, No Iterations 4
smoothSolver:  Solving for epsilon, Initial residual = 0.00642212, Final residual = 7.65269e-06, No Iterations 13
smoothSolver:  Solving for k, Initial residual = 0.0111191, Final residual = 7.44662e-06, No Iterations 16
DILUPBiCG:  Solving for T, Initial residual = 0.0026808, Final residual = 0.000244309, No Iterations 3
ExecutionTime = 16.97 s  ClockTime = 17 s

Time = 82

smoothSolver:  Solving for Ux, Initial residual = 0.00605351, Final residual = 9.88384e-06, No Iterations 14
smoothSolver:  Solving for Uy, Initial residual = 0.0292905, Final residual = 7.50654e-06, No Iterations 19
GAMG:  Solving for p, Initial residual = 0.0149359, Final residual = 8.8695e-07, No Iterations 17
time step continuity errors : sum local = 5.62054e-05, global = 1.21074e-05, cumulative = -0.000148241
DILUPBiCG:  Solving for T, Initial residual = 0.00314246, Final residual = 0.000160862, No Iterations 5
smoothSolver:  Solving for epsilon, Initial residual = 0.00642182, Final residual = 7.66606e-06, No Iterations 13
smoothSolver:  Solving for k, Initial residual = 0.0110844, Final residual = 7.45924e-06, No Iterations 16
DILUPBiCG:  Solving for T, Initial residual = 0.00271086, Final residual = 0.000214585, No Iterations 3
ExecutionTime = 17.17 s  ClockTime = 17 s

Time = 83

smoothSolver:  Solving for Ux, Initial residual = 0.00599765, Final residual = 9.80649e-06, No Iterations 14
smoothSolver:  Solving for Uy, Initial residual = 0.0297401, Final residual = 7.66638e-06, No Iterations 19
GAMG:  Solving for p, Initial residual = 0.0148407, Final residual = 9.24906e-07, No Iterations 16
time step continuity errors : sum local = 5.87601e-05, global = -1.02055e-05, cumulative = -0.000158447
DILUPBiCG:  Solving for T, Initial residual = 0.00318831, Final residual = 0.000264672, No Iterations 4
smoothSolver:  Solving for epsilon, Initial residual = 0.00641544, Final residual = 7.66684e-06, No Iterations 13
smoothSolver:  Solving for k, Initial residual = 0.0110501, Final residual = 7.48241e-06, No Iterations 16
DILUPBiCG:  Solving for T, Initial residual = 0.00276885, Final residual = 0.000262404, No Iterations 3
ExecutionTime = 17.37 s  ClockTime = 17 s

Time = 84

smoothSolver:  Solving for Ux, Initial residual = 0.00593942, Final residual = 9.74011e-06, No Iterations 14
smoothSolver:  Solving for Uy, Initial residual = 0.0302214, Final residual = 7.83373e-06, No Iterations 19
GAMG:  Solving for p, Initial residual = 0.014759, Final residual = 8.11476e-07, No Iterations 17
time step continuity errors : sum local = 5.1698e-05, global = -1.01762e-05, cumulative = -0.000168623
DILUPBiCG:  Solving for T, Initial residual = 0.00323973, Final residual = 0.00021139, No Iterations 4
smoothSolver:  Solving for epsilon, Initial residual = 0.00640155, Final residual = 7.6569e-06, No Iterations 13
smoothSolver:  Solving for k, Initial residual = 0.0110169, Final residual = 7.51693e-06, No Iterations 16
DILUPBiCG:  Solving for T, Initial residual = 0.00282583, Final residual = 0.000156687, No Iterations 5
ExecutionTime = 17.56 s  ClockTime = 17 s

Time = 85

smoothSolver:  Solving for Ux, Initial residual = 0.00587812, Final residual = 9.68758e-06, No Iterations 14
smoothSolver:  Solving for Uy, Initial residual = 0.0307293, Final residual = 8.00662e-06, No Iterations 19
GAMG:  Solving for p, Initial residual = 0.0146957, Final residual = 6.45697e-07, No Iterations 18
time step continuity errors : sum local = 4.12573e-05, global = 8.87509e-06, cumulative = -0.000159748
DILUPBiCG:  Solving for T, Initial residual = 0.00329121, Final residual = 0.00014766, No Iterations 4
smoothSolver:  Solving for epsilon, Initial residual = 0.00638051, Final residual = 7.63602e-06, No Iterations 13
smoothSolver:  Solving for k, Initial residual = 0.0109851, Final residual = 7.56203e-06, No Iterations 16
DILUPBiCG:  Solving for T, Initial residual = 0.00285638, Final residual = 0.000198306, No Iterations 3
ExecutionTime = 17.75 s  ClockTime = 17 s

Time = 86

smoothSolver:  Solving for Ux, Initial residual = 0.00581475, Final residual = 9.64947e-06, No Iterations 14
smoothSolver:  Solving for Uy, Initial residual = 0.0312609, Final residual = 8.18572e-06, No Iterations 19
GAMG:  Solving for p, Initial residual = 0.014647, Final residual = 7.13558e-07, No Iterations 18
time step continuity errors : sum local = 4.57312e-05, global = 1.01429e-05, cumulative = -0.000149605
DILUPBiCG:  Solving for T, Initial residual = 0.00330338, Final residual = 0.00011429, No Iterations 5
[...]
ExecutionTime = 43.84 s  ClockTime = 43 s

Time = 221

smoothSolver:  Solving for Ux, Initial residual = 0.000484609, Final residual = 8.57624e-06, No Iterations 9
smoothSolver:  Solving for Uy, Initial residual = 0.00334805, Final residual = 8.06298e-06, No Iterations 14
GAMG:  Solving for p, Initial residual = 0.0021872, Final residual = 5.61612e-07, No Iterations 11
time step continuity errors : sum local = 2.6086e-05, global = 2.50853e-06, cumulative = -0.00014163
DILUPBiCG:  Solving for T, Initial residual = 0.000451826, Final residual = 2.24316e-05, No Iterations 4
smoothSolver:  Solving for epsilon, Initial residual = 0.000458701, Final residual = 7.64418e-06, No Iterations 8
smoothSolver:  Solving for k, Initial residual = 0.00126916, Final residual = 8.53053e-06, No Iterations 11
DILUPBiCG:  Solving for T, Initial residual = 0.000388495, Final residual = 1.74835e-05, No Iterations 4
ExecutionTime = 44.01 s  ClockTime = 44 s

Time = 222

smoothSolver:  Solving for Ux, Initial residual = 0.000467855, Final residual = 8.29277e-06, No Iterations 9
smoothSolver:  Solving for Uy, Initial residual = 0.00322938, Final residual = 7.86542e-06, No Iterations 14
GAMG:  Solving for p, Initial residual = 0.00211093, Final residual = 5.20616e-07, No Iterations 11
time step continuity errors : sum local = 2.42229e-05, global = 2.07988e-06, cumulative = -0.00013955
DILUPBiCG:  Solving for T, Initial residual = 0.000442401, Final residual = 2.53709e-05, No Iterations 4
smoothSolver:  Solving for epsilon, Initial residual = 0.000450006, Final residual = 7.49283e-06, No Iterations 8
smoothSolver:  Solving for k, Initial residual = 0.00124248, Final residual = 8.41771e-06, No Iterations 11
DILUPBiCG:  Solving for T, Initial residual = 0.000381811, Final residual = 1.93896e-05, No Iterations 4
ExecutionTime = 44.19 s  ClockTime = 44 s

Time = 223

smoothSolver:  Solving for Ux, Initial residual = 0.000451493, Final residual = 8.01996e-06, No Iterations 9
smoothSolver:  Solving for Uy, Initial residual = 0.00311906, Final residual = 7.68852e-06, No Iterations 14
GAMG:  Solving for p, Initial residual = 0.00204304, Final residual = 4.96782e-07, No Iterations 11
time step continuity errors : sum local = 2.3156e-05, global = 1.77435e-06, cumulative = -0.000137776
DILUPBiCG:  Solving for T, Initial residual = 0.000433367, Final residual = 2.76643e-05, No Iterations 4
smoothSolver:  Solving for epsilon, Initial residual = 0.000440626, Final residual = 7.32938e-06, No Iterations 8
smoothSolver:  Solving for k, Initial residual = 0.00121812, Final residual = 8.30482e-06, No Iterations 11
DILUPBiCG:  Solving for T, Initial residual = 0.000375236, Final residual = 2.26409e-05, No Iterations 4
ExecutionTime = 44.36 s  ClockTime = 44 s

Time = 224

smoothSolver:  Solving for Ux, Initial residual = 0.000435702, Final residual = 7.7579e-06, No Iterations 9
smoothSolver:  Solving for Uy, Initial residual = 0.00301711, Final residual = 7.52649e-06, No Iterations 14
GAMG:  Solving for p, Initial residual = 0.00197231, Final residual = 4.82369e-07, No Iterations 11
time step continuity errors : sum local = 2.25264e-05, global = 1.65961e-06, cumulative = -0.000136116
DILUPBiCG:  Solving for T, Initial residual = 0.000424731, Final residual = 2.85878e-05, No Iterations 4
smoothSolver:  Solving for epsilon, Initial residual = 0.000430608, Final residual = 7.15555e-06, No Iterations 8
smoothSolver:  Solving for k, Initial residual = 0.00119544, Final residual = 8.18698e-06, No Iterations 11
DILUPBiCG:  Solving for T, Initial residual = 0.000368392, Final residual = 2.60845e-05, No Iterations 4
ExecutionTime = 44.53 s  ClockTime = 44 s

Time = 225

smoothSolver:  Solving for Ux, Initial residual = 0.000420488, Final residual = 7.50227e-06, No Iterations 9
smoothSolver:  Solving for Uy, Initial residual = 0.00292336, Final residual = 7.38293e-06, No Iterations 14
GAMG:  Solving for p, Initial residual = 0.00190117, Final residual = 4.80678e-07, No Iterations 11
time step continuity errors : sum local = 2.24914e-05, global = 1.66375e-06, cumulative = -0.000134453
DILUPBiCG:  Solving for T, Initial residual = 0.000415929, Final residual = 2.89999e-05, No Iterations 4
smoothSolver:  Solving for epsilon, Initial residual = 0.000420048, Final residual = 6.97367e-06, No Iterations 8
smoothSolver:  Solving for k, Initial residual = 0.00117375, Final residual = 8.05838e-06, No Iterations 11
DILUPBiCG:  Solving for T, Initial residual = 0.000361237, Final residual = 3.07679e-05, No Iterations 4
ExecutionTime = 44.7 s  ClockTime = 44 s

Time = 226

smoothSolver:  Solving for Ux, Initial residual = 0.000406036, Final residual = 7.25239e-06, No Iterations 9
smoothSolver:  Solving for Uy, Initial residual = 0.00283724, Final residual = 7.24878e-06, No Iterations 14
GAMG:  Solving for p, Initial residual = 0.00183492, Final residual = 4.86749e-07, No Iterations 11
time step continuity errors : sum local = 2.28215e-05, global = 1.69352e-06, cumulative = -0.000132759
DILUPBiCG:  Solving for T, Initial residual = 0.000407178, Final residual = 3.10173e-05, No Iterations 4
smoothSolver:  Solving for epsilon, Initial residual = 0.00040904, Final residual = 6.7849e-06, No Iterations 8
smoothSolver:  Solving for k, Initial residual = 0.0011524, Final residual = 7.91773e-06, No Iterations 11
DILUPBiCG:  Solving for T, Initial residual = 0.000354324, Final residual = 1.73433e-05, No Iterations 5
ExecutionTime = 44.86 s  ClockTime = 44 s

Time = 227

smoothSolver:  Solving for Ux, Initial residual = 0.000392277, Final residual = 7.00959e-06, No Iterations 9
smoothSolver:  Solving for Uy, Initial residual = 0.0027592, Final residual = 7.10813e-06, No Iterations 14
GAMG:  Solving for p, Initial residual = 0.00177226, Final residual = 4.94579e-07, No Iterations 11
time step continuity errors : sum local = 2.32364e-05, global = 1.71917e-06, cumulative = -0.00013104
DILUPBiCG:  Solving for T, Initial residual = 0.000393226, Final residual = 2.73801e-05, No Iterations 4
smoothSolver:  Solving for epsilon, Initial residual = 0.000397668, Final residual = 6.59138e-06, No Iterations 8
smoothSolver:  Solving for k, Initial residual = 0.00113074, Final residual = 7.7623e-06, No Iterations 11
DILUPBiCG:  Solving for T, Initial residual = 0.00034362, Final residual = 3.18006e-05, No Iterations 4
ExecutionTime = 45.05 s  ClockTime = 45 s

Time = 228

smoothSolver:  Solving for Ux, Initial residual = 0.000379481, Final residual = 6.7762e-06, No Iterations 9
smoothSolver:  Solving for Uy, Initial residual = 0.00268712, Final residual = 6.95479e-06, No Iterations 14
GAMG:  Solving for p, Initial residual = 0.0017134, Final residual = 5.03928e-07, No Iterations 11
time step continuity errors : sum local = 2.37246e-05, global = 1.74735e-06, cumulative = -0.000129293
DILUPBiCG:  Solving for T, Initial residual = 0.000384207, Final residual = 3.33847e-05, No Iterations 4
smoothSolver:  Solving for epsilon, Initial residual = 0.000385972, Final residual = 6.39559e-06, No Iterations 8
smoothSolver:  Solving for k, Initial residual = 0.00110838, Final residual = 7.5937e-06, No Iterations 11
DILUPBiCG:  Solving for T, Initial residual = 0.000338485, Final residual = 8.98e-06, No Iterations 5
ExecutionTime = 45.23 s  ClockTime = 45 s

Time = 229

smoothSolver:  Solving for Ux, Initial residual = 0.000367289, Final residual = 6.55371e-06, No Iterations 9
smoothSolver:  Solving for Uy, Initial residual = 0.00262143, Final residual = 6.79107e-06, No Iterations 14
GAMG:  Solving for p, Initial residual = 0.00165832, Final residual = 5.14614e-07, No Iterations 11
time step continuity errors : sum local = 2.42774e-05, global = 1.79853e-06, cumulative = -0.000127494
DILUPBiCG:  Solving for T, Initial residual = 0.000372634, Final residual = 2.82329e-05, No Iterations 4
smoothSolver:  Solving for epsilon, Initial residual = 0.000374065, Final residual = 6.19853e-06, No Iterations 8
smoothSolver:  Solving for k, Initial residual = 0.00108494, Final residual = 7.41241e-06, No Iterations 11
DILUPBiCG:  Solving for T, Initial residual = 0.000329372, Final residual = 1.00565e-05, No Iterations 5
ExecutionTime = 45.4 s  ClockTime = 45 s

Time = 230

smoothSolver:  Solving for Ux, Initial residual = 0.000355679, Final residual = 9.78793e-06, No Iterations 8
smoothSolver:  Solving for Uy, Initial residual = 0.00256215, Final residual = 6.61548e-06, No Iterations 14
GAMG:  Solving for p, Initial residual = 0.00160534, Final residual = 5.35957e-07, No Iterations 11
time step continuity errors : sum local = 2.53354e-05, global = 1.89892e-06, cumulative = -0.000125595
DILUPBiCG:  Solving for T, Initial residual = 0.000362568, Final residual = 3.03447e-05, No Iterations 4
smoothSolver:  Solving for epsilon, Initial residual = 0.000361761, Final residual = 9.75086e-06, No Iterations 7
smoothSolver:  Solving for k, Initial residual = 0.00106043, Final residual = 7.224e-06, No Iterations 11
DILUPBiCG:  Solving for T, Initial residual = 0.000321701, Final residual = 8.47485e-06, No Iterations 5
ExecutionTime = 45.57 s  ClockTime = 45 s

Time = 231

smoothSolver:  Solving for Ux, Initial residual = 0.000345046, Final residual = 9.50665e-06, No Iterations 8
smoothSolver:  Solving for Uy, Initial residual = 0.00249499, Final residual = 9.73587e-06, No Iterations 13
GAMG:  Solving for p, Initial residual = 0.00156779, Final residual = 5.28173e-07, No Iterations 11
time step continuity errors : sum local = 2.50175e-05, global = 1.86277e-06, cumulative = -0.000123732
DILUPBiCG:  Solving for T, Initial residual = 0.000352701, Final residual = 3.3467e-05, No Iterations 4
smoothSolver:  Solving for epsilon, Initial residual = 0.000350643, Final residual = 9.46725e-06, No Iterations 7
smoothSolver:  Solving for k, Initial residual = 0.00103506, Final residual = 7.02591e-06, No Iterations 11
DILUPBiCG:  Solving for T, Initial residual = 0.000314769, Final residual = 7.79139e-06, No Iterations 5
ExecutionTime = 45.74 s  ClockTime = 45 s

Time = 232

smoothSolver:  Solving for Ux, Initial residual = 0.0003347, Final residual = 9.23243e-06, No Iterations 8
smoothSolver:  Solving for Uy, Initial residual = 0.0024422, Final residual = 9.44292e-06, No Iterations 13
GAMG:  Solving for p, Initial residual = 0.00152626, Final residual = 9.79198e-07, No Iterations 10
time step continuity errors : sum local = 4.6469e-05, global = -7.20936e-06, cumulative = -0.000130942
DILUPBiCG:  Solving for T, Initial residual = 0.000359587, Final residual = 2.72782e-05, No Iterations 4
smoothSolver:  Solving for epsilon, Initial residual = 0.000339413, Final residual = 9.18252e-06, No Iterations 7
smoothSolver:  Solving for k, Initial residual = 0.00100853, Final residual = 6.81552e-06, No Iterations 11
DILUPBiCG:  Solving for T, Initial residual = 0.000308794, Final residual = 2.49498e-05, No Iterations 3
ExecutionTime = 45.9 s  ClockTime = 46 s

Time = 233

smoothSolver:  Solving for Ux, Initial residual = 0.000324832, Final residual = 8.97781e-06, No Iterations 8
smoothSolver:  Solving for Uy, Initial residual = 0.00239188, Final residual = 9.14211e-06, No Iterations 13
GAMG:  Solving for p, Initial residual = 0.00148745, Final residual = 7.93096e-07, No Iterations 10
time step continuity errors : sum local = 3.77051e-05, global = -6.09252e-06, cumulative = -0.000137034
DILUPBiCG:  Solving for T, Initial residual = 0.000335557, Final residual = 1.06208e-05, No Iterations 5
smoothSolver:  Solving for epsilon, Initial residual = 0.00032819, Final residual = 8.90051e-06, No Iterations 7
smoothSolver:  Solving for k, Initial residual = 0.000980874, Final residual = 6.59747e-06, No Iterations 11
DILUPBiCG:  Solving for T, Initial residual = 0.00029521, Final residual = 2.16833e-05, No Iterations 4
ExecutionTime = 46.09 s  ClockTime = 46 s

Time = 234

smoothSolver:  Solving for Ux, Initial residual = 0.000315483, Final residual = 8.74354e-06, No Iterations 8
smoothSolver:  Solving for Uy, Initial residual = 0.00234115, Final residual = 8.82962e-06, No Iterations 13
GAMG:  Solving for p, Initial residual = 0.00144884, Final residual = 8.3611e-07, No Iterations 10
time step continuity errors : sum local = 3.9817e-05, global = -6.41499e-06, cumulative = -0.000143449
DILUPBiCG:  Solving for T, Initial residual = 0.000325166, Final residual = 1.08317e-05, No Iterations 5
smoothSolver:  Solving for epsilon, Initial residual = 0.000317066, Final residual = 8.62403e-06, No Iterations 7
smoothSolver:  Solving for k, Initial residual = 0.00095241, Final residual = 9.97886e-06, No Iterations 10
DILUPBiCG:  Solving for T, Initial residual = 0.000286695, Final residual = 1.79653e-05, No Iterations 3
ExecutionTime = 46.25 s  ClockTime = 46 s

Time = 235

smoothSolver:  Solving for Ux, Initial residual = 0.00030665, Final residual = 8.52897e-06, No Iterations 8
smoothSolver:  Solving for Uy, Initial residual = 0.00228797, Final residual = 8.50487e-06, No Iterations 13
GAMG:  Solving for p, Initial residual = 0.00140836, Final residual = 7.50829e-07, No Iterations 10
time step continuity errors : sum local = 3.58111e-05, global = -6.04545e-06, cumulative = -0.000149495
DILUPBiCG:  Solving for T, Initial residual = 0.000314826, Final residual = 2.90739e-05, No Iterations 3
smoothSolver:  Solving for epsilon, Initial residual = 0.000306033, Final residual = 8.35226e-06, No Iterations 7
smoothSolver:  Solving for k, Initial residual = 0.0009235, Final residual = 9.63339e-06, No Iterations 10
DILUPBiCG:  Solving for T, Initial residual = 0.000276147, Final residual = 1.95601e-05, No Iterations 3
ExecutionTime = 46.41 s  ClockTime = 46 s

Time = 236

smoothSolver:  Solving for Ux, Initial residual = 0.000298331, Final residual = 8.32822e-06, No Iterations 8
smoothSolver:  Solving for Uy, Initial residual = 0.00223232, Final residual = 8.17247e-06, No Iterations 13
GAMG:  Solving for p, Initial residual = 0.00136789, Final residual = 9.86416e-07, No Iterations 9
time step continuity errors : sum local = 4.71137e-05, global = 4.8617e-06, cumulative = -0.000144633
DILUPBiCG:  Solving for T, Initial residual = 0.000318408, Final residual = 2.5391e-05, No Iterations 3
smoothSolver:  Solving for epsilon, Initial residual = 0.000295425, Final residual = 8.09243e-06, No Iterations 7
smoothSolver:  Solving for k, Initial residual = 0.00089435, Final residual = 9.29049e-06, No Iterations 10
DILUPBiCG:  Solving for T, Initial residual = 0.000271626, Final residual = 2.53399e-05, No Iterations 3
ExecutionTime = 46.57 s  ClockTime = 46 s

Time = 237

smoothSolver:  Solving for Ux, Initial residual = 0.000290525, Final residual = 8.13385e-06, No Iterations 8
smoothSolver:  Solving for Uy, Initial residual = 0.00217311, Final residual = 7.83493e-06, No Iterations 13
GAMG:  Solving for p, Initial residual = 0.00132848, Final residual = 7.8498e-07, No Iterations 8
time step continuity errors : sum local = 3.7539e-05, global = -1.96082e-06, cumulative = -0.000146594
DILUPBiCG:  Solving for T, Initial residual = 0.000313421, Final residual = 1.60637e-05, No Iterations 4
smoothSolver:  Solving for epsilon, Initial residual = 0.000285282, Final residual = 7.84605e-06, No Iterations 7
smoothSolver:  Solving for k, Initial residual = 0.000865386, Final residual = 8.95488e-06, No Iterations 10
DILUPBiCG:  Solving for T, Initial residual = 0.000265637, Final residual = 1.84295e-05, No Iterations 3
ExecutionTime = 46.72 s  ClockTime = 46 s

Time = 238

smoothSolver:  Solving for Ux, Initial residual = 0.000283094, Final residual = 7.93758e-06, No Iterations 8
smoothSolver:  Solving for Uy, Initial residual = 0.00211043, Final residual = 7.49618e-06, No Iterations 13
GAMG:  Solving for p, Initial residual = 0.00129027, Final residual = 6.99214e-07, No Iterations 8
time step continuity errors : sum local = 3.3474e-05, global = 3.08076e-06, cumulative = -0.000143513
DILUPBiCG:  Solving for T, Initial residual = 0.000308112, Final residual = 2.16469e-05, No Iterations 3
smoothSolver:  Solving for epsilon, Initial residual = 0.000275668, Final residual = 7.61504e-06, No Iterations 7
smoothSolver:  Solving for k, Initial residual = 0.0008369, Final residual = 8.63132e-06, No Iterations 10
DILUPBiCG:  Solving for T, Initial residual = 0.000261728, Final residual = 2.34695e-05, No Iterations 3
ExecutionTime = 46.88 s  ClockTime = 46 s

Time = 239

smoothSolver:  Solving for Ux, Initial residual = 0.000275929, Final residual = 7.73185e-06, No Iterations 8
smoothSolver:  Solving for Uy, Initial residual = 0.00204434, Final residual = 7.16014e-06, No Iterations 13
GAMG:  Solving for p, Initial residual = 0.00125326, Final residual = 9.31371e-07, No Iterations 8
time step continuity errors : sum local = 4.46294e-05, global = 5.07244e-06, cumulative = -0.000138441
DILUPBiCG:  Solving for T, Initial residual = 0.000300339, Final residual = 1.39288e-05, No Iterations 5
smoothSolver:  Solving for epsilon, Initial residual = 0.000266503, Final residual = 7.39875e-06, No Iterations 7
smoothSolver:  Solving for k, Initial residual = 0.000808935, Final residual = 8.32416e-06, No Iterations 10
DILUPBiCG:  Solving for T, Initial residual = 0.000258727, Final residual = 2.22021e-05, No Iterations 3
ExecutionTime = 47.05 s  ClockTime = 47 s

Time = 240

smoothSolver:  Solving for Ux, Initial residual = 0.000268789, Final residual = 7.51301e-06, No Iterations 8
smoothSolver:  Solving for Uy, Initial residual = 0.00197616, Final residual = 6.82929e-06, No Iterations 13
GAMG:  Solving for p, Initial residual = 0.00121778, Final residual = 6.92766e-07, No Iterations 9
time step continuity errors : sum local = 3.3221e-05, global = -2.90943e-06, cumulative = -0.00014135
DILUPBiCG:  Solving for T, Initial residual = 0.000297615, Final residual = 2.13849e-05, No Iterations 3
smoothSolver:  Solving for epsilon, Initial residual = 0.000257882, Final residual = 7.19815e-06, No Iterations 7
smoothSolver:  Solving for k, Initial residual = 0.000781528, Final residual = 8.03692e-06, No Iterations 10
DILUPBiCG:  Solving for T, Initial residual = 0.000249077, Final residual = 1.36365e-05, No Iterations 3
ExecutionTime = 47.21 s  ClockTime = 47 s

Time = 241

smoothSolver:  Solving for Ux, Initial residual = 0.000261504, Final residual = 7.28119e-06, No Iterations 8
smoothSolver:  Solving for Uy, Initial residual = 0.00190554, Final residual = 9.96862e-06, No Iterations 12
GAMG:  Solving for p, Initial residual = 0.00118174, Final residual = 7.16598e-07, No Iterations 9
time step continuity errors : sum local = 3.43836e-05, global = -2.71514e-06, cumulative = -0.000144065
DILUPBiCG:  Solving for T, Initial residual = 0.000275562, Final residual = 1.84278e-05, No Iterations 3
smoothSolver:  Solving for epsilon, Initial residual = 0.000249682, Final residual = 7.01206e-06, No Iterations 7
smoothSolver:  Solving for k, Initial residual = 0.000754782, Final residual = 7.77232e-06, No Iterations 10
DILUPBiCG:  Solving for T, Initial residual = 0.000235816, Final residual = 1.29112e-05, No Iterations 3
ExecutionTime = 47.36 s  ClockTime = 47 s

Time = 242

smoothSolver:  Solving for Ux, Initial residual = 0.000253867, Final residual = 7.03728e-06, No Iterations 8
smoothSolver:  Solving for Uy, Initial residual = 0.00183438, Final residual = 9.50448e-06, No Iterations 12
GAMG:  Solving for p, Initial residual = 0.00114637, Final residual = 7.20019e-07, No Iterations 9
time step continuity errors : sum local = 3.45619e-05, global = -2.53868e-06, cumulative = -0.000146604
DILUPBiCG:  Solving for T, Initial residual = 0.000263426, Final residual = 1.49128e-05, No Iterations 3
smoothSolver:  Solving for epsilon, Initial residual = 0.000241967, Final residual = 6.84101e-06, No Iterations 7
smoothSolver:  Solving for k, Initial residual = 0.000729082, Final residual = 7.53219e-06, No Iterations 10
DILUPBiCG:  Solving for T, Initial residual = 0.000225154, Final residual = 1.08435e-05, No Iterations 3
ExecutionTime = 47.52 s  ClockTime = 47 s

Time = 243

