/*---------------------------------------------------------------------------*\
| =========                 |                                                 |
| \\      /  F ield         | OpenFOAM: The Open Source CFD Toolbox           |
|  \\    /   O peration     | Version:  plus                                  |
|   \\  /    A nd           | Website:  www.openfoam.com                      |
|    \\/     M anipulation  |                                                 |
\*---------------------------------------------------------------------------*/
Build  : 1937044933-20210216 OPENFOAM=2012
Arch   : "LSB;label=64;scalar=64"
Dco    : "dco/FOAM v1.4"
Exec   : BuoyantMMAProgram
Date   : Apr 14 2021
Time   : 19:47:40
Host   : abhishek-VirtualBox
PID    : 8724
I/O    : uncollated
Case   : /home/abhishek/discreteadjointopenfoam_adwrapper/applications/discreteAdjointOpenFOAM/adjoint/BuoyantMMAProgram/solid_fluid
nProcs : 1
trapFpe: Floating point exception trapping enabled (FOAM_SIGFPE).
fileModificationChecking : Monitoring run-time modified files using timeStampMaster (fileModificationSkew 5, maxFileModificationPolls 20)
allowSystemOperations : Allowing user-supplied system call operations

// * * * * * * * * * * * * * * * * * * * * * * * * * * * * * * * * * * * * * //
Create time

Create mesh for time = 0


SIMPLE: no convergence criteria found. Calculations will run for 5000 steps.

Reading thermophysical properties

Reading field T

Reading field p_rgh

Reading field U

Reading/calculating face flux field phi

Selecting incompressible transport model Newtonian
Creating turbulence model

Selecting turbulence model type laminar
Selecting laminar stress model Stokes
Reading field alphat


Reading g

Reading hRef
Calculating field g.h

No MRF models present

Radiation model not active: radiationProperties not found
Selecting radiationModel none
No finite volume options present
Creating Checkpoints for fields in region0:
        nu:	no
        gh:	no
      rhok:	no
   eta_MMA:	no
    alphat:	yes
       eta:	no
     alpha:	no
         p:	yes
         T:	yes
  porosity:	no
      sens:	no
   eta_old:	no
     p_rgh:	yes
    dfdeta:	no
         U:	yes
       phi:	yes
       ghf:	no
--------------------------------
Creating Checkpoints for fields in region0:
        nu:	no
        gh:	no
      rhok:	no
   eta_MMA:	no
    alphat:	yes
       eta:	no
     alpha:	no
         p:	yes
         T:	yes
  porosity:	no
      sens:	no
   eta_old:	no
     p_rgh:	yes
    dfdeta:	no
         U:	yes
       phi:	yes
       ghf:	no
--------------------------------
Creating Tape, size: 4096
Starting MMA Program

Warning: Keyword penalty not found in fvSolution/SIMPLE. Default set to 0.6
Warning: Keyword porosity_f not found in fvSolution/SIMPLE. Default set to 0.1
Warning: Keyword porosity_s not found in fvSolution/SIMPLE. Default set to 10e5
Warning: Keyword maxPiggyLoop not found in fvSolution/SIMPLE. Default set to 100
Warning: Keyword optTolerance not found in fvSolution/SIMPLE. Default set to 5e-2
Warning: Keyword maxMMA not found in fvSolution/SIMPLE. Default set to 15
Warning: Keyword volumeConstraint not found in fvSolution/SIMPLE. Default set to 0.4
Warning: Keyword maxoutit not found in fvSolution/SIMPLE. Default set to 8
Warning: Keyword maxLoop not found in fvSolution/SIMPLE. Default set to 15
Sum dfdeta = 1.6772
Eta Set ! 5.5605e+09

Starting time loop

Time = 1

DILUPBiCGStab:  Solving for Ux, Initial residual = 1, Final residual = 0.000229194, No Iterations 1
DILUPBiCGStab:  Solving for Uy, Initial residual = 0.000228392, Final residual = 5.1898e-08, No Iterations 1
DILUPBiCGStab:  Solving for Uz, Initial residual = 0.000706481, Final residual = 1.47874e-07, No Iterations 1
DILUPBiCGStab:  Solving for T, Initial residual = 1, Final residual = 0.0957207, No Iterations 15
GAMG:  Solving for p_rgh, Initial residual = 1, Final residual = 0.00769016, No Iterations 5
time step continuity errors : sum local = 0.00425302, global = -0.000557843, cumulative = -0.000557843
ExecutionTime = 2.12 s  ClockTime = 3 s

Time = 2

DILUPBiCGStab:  Solving for Ux, Initial residual = 8.30064e-05, Final residual = 2.96257e-07, No Iterations 1
DILUPBiCGStab:  Solving for Uy, Initial residual = 0.0891774, Final residual = 0.000120859, No Iterations 1
DILUPBiCGStab:  Solving for Uz, Initial residual = 0.00474058, Final residual = 2.22607e-05, No Iterations 1
DILUPBiCGStab:  Solving for T, Initial residual = 0.684637, Final residual = 0.0451235, No Iterations 2
GAMG:  Solving for p_rgh, Initial residual = 0.0562836, Final residual = 0.000102544, No Iterations 4
time step continuity errors : sum local = 0.00145241, global = -0.000403628, cumulative = -0.000961472
ExecutionTime = 2.35 s  ClockTime = 3 s

Time = 3

DILUPBiCGStab:  Solving for Ux, Initial residual = 9.90312e-05, Final residual = 4.76154e-07, No Iterations 1
DILUPBiCGStab:  Solving for Uy, Initial residual = 0.17885, Final residual = 0.000917973, No Iterations 1
DILUPBiCGStab:  Solving for Uz, Initial residual = 0.0237457, Final residual = 0.000158874, No Iterations 1
DILUPBiCGStab:  Solving for T, Initial residual = 0.31051, Final residual = 0.0300162, No Iterations 12
GAMG:  Solving for p_rgh, Initial residual = 0.0819143, Final residual = 0.000753639, No Iterations 3
time step continuity errors : sum local = 0.0189575, global = -0.00188155, cumulative = -0.00284302
ExecutionTime = 2.6 s  ClockTime = 3 s

Time = 4

DILUPBiCGStab:  Solving for Ux, Initial residual = 2.0673e-05, Final residual = 1.2768e-07, No Iterations 1
DILUPBiCGStab:  Solving for Uy, Initial residual = 0.0686915, Final residual = 0.00047369, No Iterations 1
DILUPBiCGStab:  Solving for Uz, Initial residual = 0.0428146, Final residual = 0.000303271, No Iterations 1
DILUPBiCGStab:  Solving for T, Initial residual = 0.212859, Final residual = 0.0139628, No Iterations 8
GAMG:  Solving for p_rgh, Initial residual = 0.135072, Final residual = 0.00111103, No Iterations 3
time step continuity errors : sum local = 0.00859926, global = 0.000695505, cumulative = -0.00214752
ExecutionTime = 2.85 s  ClockTime = 3 s

Time = 5

DILUPBiCGStab:  Solving for Ux, Initial residual = 2.14822e-05, Final residual = 1.00784e-07, No Iterations 1
DILUPBiCGStab:  Solving for Uy, Initial residual = 0.0222696, Final residual = 0.000128321, No Iterations 1
DILUPBiCGStab:  Solving for Uz, Initial residual = 0.0471373, Final residual = 0.000305176, No Iterations 1
DILUPBiCGStab:  Solving for T, Initial residual = 0.0624515, Final residual = 0.00569622, No Iterations 4
GAMG:  Solving for p_rgh, Initial residual = 0.141685, Final residual = 0.000282719, No Iterations 3
time step continuity errors : sum local = 0.00161646, global = -0.000181397, cumulative = -0.00232891
ExecutionTime = 3.1 s  ClockTime = 4 s

Time = 6

DILUPBiCGStab:  Solving for Ux, Initial residual = 1.5316e-05, Final residual = 7.34725e-08, No Iterations 1
DILUPBiCGStab:  Solving for Uy, Initial residual = 0.0274298, Final residual = 0.000140385, No Iterations 1
DILUPBiCGStab:  Solving for Uz, Initial residual = 0.00648225, Final residual = 4.10134e-05, No Iterations 1
DILUPBiCGStab:  Solving for T, Initial residual = 0.036307, Final residual = 0.00294222, No Iterations 2
GAMG:  Solving for p_rgh, Initial residual = 0.132787, Final residual = 0.000840014, No Iterations 3
time step continuity errors : sum local = 0.00336438, global = 0.000149095, cumulative = -0.00217982
ExecutionTime = 3.35 s  ClockTime = 4 s

Time = 7

DILUPBiCGStab:  Solving for Ux, Initial residual = 3.61512e-06, Final residual = 2.04981e-08, No Iterations 1
DILUPBiCGStab:  Solving for Uy, Initial residual = 0.0854278, Final residual = 0.000486476, No Iterations 1
DILUPBiCGStab:  Solving for Uz, Initial residual = 0.00598017, Final residual = 3.66517e-05, No Iterations 1
DILUPBiCGStab:  Solving for T, Initial residual = 0.023568, Final residual = 0.00189284, No Iterations 1
GAMG:  Solving for p_rgh, Initial residual = 0.255589, Final residual = 0.00139375, No Iterations 3
time step continuity errors : sum local = 0.00177804, global = -0.000898241, cumulative = -0.00307806
ExecutionTime = 3.57 s  ClockTime = 4 s

Time = 8

DILUPBiCGStab:  Solving for Ux, Initial residual = 4.82749e-06, Final residual = 2.39484e-08, No Iterations 1
DILUPBiCGStab:  Solving for Uy, Initial residual = 0.0312679, Final residual = 0.000175395, No Iterations 1
DILUPBiCGStab:  Solving for Uz, Initial residual = 0.00787449, Final residual = 4.76436e-05, No Iterations 1
DILUPBiCGStab:  Solving for T, Initial residual = 0.0182147, Final residual = 0.00176076, No Iterations 7
GAMG:  Solving for p_rgh, Initial residual = 0.104994, Final residual = 0.000447519, No Iterations 3
time step continuity errors : sum local = 0.000966238, global = -2.60566e-05, cumulative = -0.00310412
ExecutionTime = 3.85 s  ClockTime = 4 s

Time = 9

DILUPBiCGStab:  Solving for Ux, Initial residual = 2.88164e-06, Final residual = 1.48699e-08, No Iterations 1
DILUPBiCGStab:  Solving for Uy, Initial residual = 0.014093, Final residual = 7.876e-05, No Iterations 1
DILUPBiCGStab:  Solving for Uz, Initial residual = 0.0146911, Final residual = 8.59342e-05, No Iterations 1
DILUPBiCGStab:  Solving for T, Initial residual = 0.0145701, Final residual = 0.00144739, No Iterations 5
GAMG:  Solving for p_rgh, Initial residual = 0.0986133, Final residual = 0.000392687, No Iterations 3
time step continuity errors : sum local = 0.000532147, global = 8.44896e-05, cumulative = -0.00301963
ExecutionTime = 4.1 s  ClockTime = 5 s

Time = 10

DILUPBiCGStab:  Solving for Ux, Initial residual = 1.96787e-06, Final residual = 8.95633e-09, No Iterations 1
DILUPBiCGStab:  Solving for Uy, Initial residual = 0.00911809, Final residual = 4.75289e-05, No Iterations 1
DILUPBiCGStab:  Solving for Uz, Initial residual = 0.0142178, Final residual = 7.80645e-05, No Iterations 1
DILUPBiCGStab:  Solving for T, Initial residual = 0.0121837, Final residual = 0.000894499, No Iterations 10
GAMG:  Solving for p_rgh, Initial residual = 0.161909, Final residual = 0.000904794, No Iterations 2
time step continuity errors : sum local = 0.000506617, global = 0.000147627, cumulative = -0.002872
ExecutionTime = 4.36 s  ClockTime = 5 s

Time = 11

DILUPBiCGStab:  Solving for Ux, Initial residual = 1.722e-06, Final residual = 7.65236e-09, No Iterations 1
DILUPBiCGStab:  Solving for Uy, Initial residual = 0.00704622, Final residual = 3.51044e-05, No Iterations 1
DILUPBiCGStab:  Solving for Uz, Initial residual = 0.00771186, Final residual = 4.09308e-05, No Iterations 1
DILUPBiCGStab:  Solving for T, Initial residual = 0.00987385, Final residual = 0.000720828, No Iterations 2
GAMG:  Solving for p_rgh, Initial residual = 0.156708, Final residual = 0.00113974, No Iterations 2
time step continuity errors : sum local = 0.000486165, global = -0.000128932, cumulative = -0.00300093
ExecutionTime = 4.6 s  ClockTime = 5 s

Time = 12

DILUPBiCGStab:  Solving for Ux, Initial residual = 1.63287e-06, Final residual = 6.9286e-09, No Iterations 1
DILUPBiCGStab:  Solving for Uy, Initial residual = 0.00674428, Final residual = 3.44188e-05, No Iterations 1
DILUPBiCGStab:  Solving for Uz, Initial residual = 0.0052239, Final residual = 2.73286e-05, No Iterations 1
DILUPBiCGStab:  Solving for T, Initial residual = 0.00916727, Final residual = 0.000772263, No Iterations 9
GAMG:  Solving for p_rgh, Initial residual = 0.089375, Final residual = 0.000558405, No Iterations 2
time step continuity errors : sum local = 0.000323927, global = -2.65123e-05, cumulative = -0.00302744
ExecutionTime = 4.86 s  ClockTime = 5 s

Time = 13

DILUPBiCGStab:  Solving for Ux, Initial residual = 1.63721e-06, Final residual = 7.01097e-09, No Iterations 1
DILUPBiCGStab:  Solving for Uy, Initial residual = 0.00649298, Final residual = 3.27384e-05, No Iterations 1
DILUPBiCGStab:  Solving for Uz, Initial residual = 0.00453637, Final residual = 2.35801e-05, No Iterations 1
DILUPBiCGStab:  Solving for T, Initial residual = 0.00820957, Final residual = 0.000318539, No Iterations 11
GAMG:  Solving for p_rgh, Initial residual = 0.069488, Final residual = 0.000101419, No Iterations 2
time step continuity errors : sum local = 6.78918e-05, global = 1.64644e-05, cumulative = -0.00301098
ExecutionTime = 5.11 s  ClockTime = 6 s

Time = 14

DILUPBiCGStab:  Solving for Ux, Initial residual = 1.57269e-06, Final residual = 6.67459e-09, No Iterations 1
DILUPBiCGStab:  Solving for Uy, Initial residual = 0.00561755, Final residual = 2.84025e-05, No Iterations 1
DILUPBiCGStab:  Solving for Uz, Initial residual = 0.00428397, Final residual = 2.22097e-05, No Iterations 1
DILUPBiCGStab:  Solving for T, Initial residual = 0.00732379, Final residual = 0.000103894, No Iterations 13
GAMG:  Solving for p_rgh, Initial residual = 0.0641535, Final residual = 0.000199512, No Iterations 2
time step continuity errors : sum local = 0.00012903, global = 1.91495e-05, cumulative = -0.00299183
ExecutionTime = 5.36 s  ClockTime = 6 s

Time = 15

DILUPBiCGStab:  Solving for Ux, Initial residual = 1.47109e-06, Final residual = 6.13781e-09, No Iterations 1
DILUPBiCGStab:  Solving for Uy, Initial residual = 0.00461425, Final residual = 2.31356e-05, No Iterations 1
DILUPBiCGStab:  Solving for Uz, Initial residual = 0.00393173, Final residual = 1.96677e-05, No Iterations 1
DILUPBiCGStab:  Solving for T, Initial residual = 0.00685878, Final residual = 2.74879e-05, No Iterations 16
GAMG:  Solving for p_rgh, Initial residual = 0.0628911, Final residual = 0.000482973, No Iterations 1
time step continuity errors : sum local = 0.000285484, global = 0.000141912, cumulative = -0.00284992
ExecutionTime = 5.63 s  ClockTime = 6 s

Time = 16

DILUPBiCGStab:  Solving for Ux, Initial residual = 1.4111e-06, Final residual = 5.93884e-09, No Iterations 1
DILUPBiCGStab:  Solving for Uy, Initial residual = 0.00417656, Final residual = 2.06157e-05, No Iterations 1
DILUPBiCGStab:  Solving for Uz, Initial residual = 0.00356102, Final residual = 1.75054e-05, No Iterations 1
DILUPBiCGStab:  Solving for T, Initial residual = 0.00639782, Final residual = 0.000308595, No Iterations 13
GAMG:  Solving for p_rgh, Initial residual = 0.0625033, Final residual = 0.000476444, No Iterations 1
time step continuity errors : sum local = 0.000270957, global = 0.000126033, cumulative = -0.00272389
ExecutionTime = 5.9 s  ClockTime = 6 s

Time = 17

DILUPBiCGStab:  Solving for Ux, Initial residual = 1.35347e-06, Final residual = 5.68653e-09, No Iterations 1
DILUPBiCGStab:  Solving for Uy, Initial residual = 0.00389421, Final residual = 1.93067e-05, No Iterations 1
DILUPBiCGStab:  Solving for Uz, Initial residual = 0.00306984, Final residual = 1.49731e-05, No Iterations 1
DILUPBiCGStab:  Solving for T, Initial residual = 0.00644681, Final residual = 0.000623839, No Iterations 8
GAMG:  Solving for p_rgh, Initial residual = 0.0625214, Final residual = 0.000457539, No Iterations 1
time step continuity errors : sum local = 0.000246684, global = 0.000104588, cumulative = -0.0026193
ExecutionTime = 6.14 s  ClockTime = 7 s

Time = 18

DILUPBiCGStab:  Solving for Ux, Initial residual = 1.30485e-06, Final residual = 5.50494e-09, No Iterations 1
DILUPBiCGStab:  Solving for Uy, Initial residual = 0.00342712, Final residual = 1.70295e-05, No Iterations 1
DILUPBiCGStab:  Solving for Uz, Initial residual = 0.00258759, Final residual = 1.26914e-05, No Iterations 1
DILUPBiCGStab:  Solving for T, Initial residual = 0.00637584, Final residual = 0.0005131, No Iterations 14
GAMG:  Solving for p_rgh, Initial residual = 0.0598011, Final residual = 0.000435254, No Iterations 1
time step continuity errors : sum local = 0.000233034, global = 0.000102305, cumulative = -0.00251699
ExecutionTime = 6.4 s  ClockTime = 7 s

Time = 19

DILUPBiCGStab:  Solving for Ux, Initial residual = 1.26359e-06, Final residual = 5.30229e-09, No Iterations 1
DILUPBiCGStab:  Solving for Uy, Initial residual = 0.00298346, Final residual = 1.45741e-05, No Iterations 1
DILUPBiCGStab:  Solving for Uz, Initial residual = 0.00218495, Final residual = 1.05713e-05, No Iterations 1
DILUPBiCGStab:  Solving for T, Initial residual = 0.0058925, Final residual = 0.000457413, No Iterations 14
GAMG:  Solving for p_rgh, Initial residual = 0.0598764, Final residual = 0.000438927, No Iterations 1
time step continuity errors : sum local = 0.000223169, global = 8.62629e-05, cumulative = -0.00243073
ExecutionTime = 6.69 s  ClockTime = 7 s

Time = 20

DILUPBiCGStab:  Solving for Ux, Initial residual = 1.22509e-06, Final residual = 5.08613e-09, No Iterations 1
DILUPBiCGStab:  Solving for Uy, Initial residual = 0.00268927, Final residual = 1.31808e-05, No Iterations 1
DILUPBiCGStab:  Solving for Uz, Initial residual = 0.00190604, Final residual = 9.20275e-06, No Iterations 1
DILUPBiCGStab:  Solving for T, Initial residual = 0.00572018, Final residual = 0.000539264, No Iterations 7
GAMG:  Solving for p_rgh, Initial residual = 0.0581093, Final residual = 0.000386438, No Iterations 1
time step continuity errors : sum local = 0.000194167, global = 7.12083e-05, cumulative = -0.00235952
ExecutionTime = 6.96 s  ClockTime = 7 s

Time = 21

DILUPBiCGStab:  Solving for Ux, Initial residual = 1.18582e-06, Final residual = 4.94164e-09, No Iterations 1
DILUPBiCGStab:  Solving for Uy, Initial residual = 0.00244419, Final residual = 1.18278e-05, No Iterations 1
DILUPBiCGStab:  Solving for Uz, Initial residual = 0.00169101, Final residual = 8.11098e-06, No Iterations 1
DILUPBiCGStab:  Solving for T, Initial residual = 0.00552894, Final residual = 0.000505545, No Iterations 10
GAMG:  Solving for p_rgh, Initial residual = 0.057585, Final residual = 0.000384242, No Iterations 1
time step continuity errors : sum local = 0.000192385, global = 7.34575e-05, cumulative = -0.00228606
ExecutionTime = 7.18 s  ClockTime = 8 s

Time = 22

DILUPBiCGStab:  Solving for Ux, Initial residual = 1.14921e-06, Final residual = 4.86747e-09, No Iterations 1
DILUPBiCGStab:  Solving for Uy, Initial residual = 0.00226183, Final residual = 1.08645e-05, No Iterations 1
DILUPBiCGStab:  Solving for Uz, Initial residual = 0.00153269, Final residual = 7.29638e-06, No Iterations 1
DILUPBiCGStab:  Solving for T, Initial residual = 0.00525402, Final residual = 0.000522757, No Iterations 10
GAMG:  Solving for p_rgh, Initial residual = 0.0596194, Final residual = 0.000391126, No Iterations 1
time step continuity errors : sum local = 0.00018404, global = 8.37235e-05, cumulative = -0.00220234
ExecutionTime = 7.41 s  ClockTime = 8 s

Time = 23

DILUPBiCGStab:  Solving for Ux, Initial residual = 1.11475e-06, Final residual = 4.70776e-09, No Iterations 1
DILUPBiCGStab:  Solving for Uy, Initial residual = 0.00206349, Final residual = 9.86628e-06, No Iterations 1
DILUPBiCGStab:  Solving for Uz, Initial residual = 0.0013942, Final residual = 6.69747e-06, No Iterations 1
DILUPBiCGStab:  Solving for T, Initial residual = 0.00517602, Final residual = 0.000481575, No Iterations 11
GAMG:  Solving for p_rgh, Initial residual = 0.056268, Final residual = 0.000368293, No Iterations 1
time step continuity errors : sum local = 0.000174532, global = 7.97347e-05, cumulative = -0.00212261
ExecutionTime = 7.66 s  ClockTime = 8 s

Time = 24

DILUPBiCGStab:  Solving for Ux, Initial residual = 1.08201e-06, Final residual = 4.53764e-09, No Iterations 1
DILUPBiCGStab:  Solving for Uy, Initial residual = 0.00188498, Final residual = 8.85258e-06, No Iterations 1
DILUPBiCGStab:  Solving for Uz, Initial residual = 0.00128095, Final residual = 6.06449e-06, No Iterations 1
DILUPBiCGStab:  Solving for T, Initial residual = 0.00498999, Final residual = 0.000343806, No Iterations 12
GAMG:  Solving for p_rgh, Initial residual = 0.0542588, Final residual = 0.000375724, No Iterations 1
time step continuity errors : sum local = 0.000177456, global = 6.3413e-05, cumulative = -0.00205919
ExecutionTime = 7.92 s  ClockTime = 8 s

Time = 25

DILUPBiCGStab:  Solving for Ux, Initial residual = 1.05083e-06, Final residual = 4.37504e-09, No Iterations 1
DILUPBiCGStab:  Solving for Uy, Initial residual = 0.00177789, Final residual = 8.42791e-06, No Iterations 1
DILUPBiCGStab:  Solving for Uz, Initial residual = 0.00120049, Final residual = 5.64216e-06, No Iterations 1
DILUPBiCGStab:  Solving for T, Initial residual = 0.00457514, Final residual = 0.000436982, No Iterations 10
GAMG:  Solving for p_rgh, Initial residual = 0.0549413, Final residual = 0.000357114, No Iterations 1
time step continuity errors : sum local = 0.000163729, global = 5.59866e-05, cumulative = -0.00200321
ExecutionTime = 8.17 s  ClockTime = 9 s

Time = 26

DILUPBiCGStab:  Solving for Ux, Initial residual = 1.02128e-06, Final residual = 4.30399e-09, No Iterations 1
DILUPBiCGStab:  Solving for Uy, Initial residual = 0.00168628, Final residual = 8.04904e-06, No Iterations 1
DILUPBiCGStab:  Solving for Uz, Initial residual = 0.00112632, Final residual = 5.29309e-06, No Iterations 1
DILUPBiCGStab:  Solving for T, Initial residual = 0.00461273, Final residual = 0.000239857, No Iterations 14
GAMG:  Solving for p_rgh, Initial residual = 0.0541911, Final residual = 0.000378195, No Iterations 1
time step continuity errors : sum local = 0.000169948, global = 6.06352e-05, cumulative = -0.00194257
ExecutionTime = 8.41 s  ClockTime = 9 s

Time = 27

DILUPBiCGStab:  Solving for Ux, Initial residual = 9.93808e-07, Final residual = 4.17841e-09, No Iterations 1
DILUPBiCGStab:  Solving for Uy, Initial residual = 0.00163099, Final residual = 7.76075e-06, No Iterations 1
DILUPBiCGStab:  Solving for Uz, Initial residual = 0.00106127, Final residual = 5.01408e-06, No Iterations 1
DILUPBiCGStab:  Solving for T, Initial residual = 0.00427993, Final residual = 0.000327593, No Iterations 13
GAMG:  Solving for p_rgh, Initial residual = 0.0530635, Final residual = 0.000368305, No Iterations 1
time step continuity errors : sum local = 0.00016323, global = 6.10952e-05, cumulative = -0.00188148
ExecutionTime = 8.66 s  ClockTime = 9 s

Time = 28

DILUPBiCGStab:  Solving for Ux, Initial residual = 9.68216e-07, Final residual = 4.04429e-09, No Iterations 1
DILUPBiCGStab:  Solving for Uy, Initial residual = 0.00157908, Final residual = 7.45968e-06, No Iterations 1
DILUPBiCGStab:  Solving for Uz, Initial residual = 0.00100598, Final residual = 4.72042e-06, No Iterations 1
DILUPBiCGStab:  Solving for T, Initial residual = 0.00419445, Final residual = 0.000406198, No Iterations 11
GAMG:  Solving for p_rgh, Initial residual = 0.0506343, Final residual = 0.000328266, No Iterations 1
time step continuity errors : sum local = 0.000147327, global = 5.61828e-05, cumulative = -0.00182529
ExecutionTime = 8.91 s  ClockTime = 9 s

Time = 29

DILUPBiCGStab:  Solving for Ux, Initial residual = 9.41907e-07, Final residual = 3.95326e-09, No Iterations 1
DILUPBiCGStab:  Solving for Uy, Initial residual = 0.00152511, Final residual = 7.25514e-06, No Iterations 1
DILUPBiCGStab:  Solving for Uz, Initial residual = 0.000969772, Final residual = 4.53211e-06, No Iterations 1
DILUPBiCGStab:  Solving for T, Initial residual = 0.00421016, Final residual = 0.000416758, No Iterations 14
GAMG:  Solving for p_rgh, Initial residual = 0.0516342, Final residual = 0.00036373, No Iterations 1
time step continuity errors : sum local = 0.000157495, global = 5.8733e-05, cumulative = -0.00176656
ExecutionTime = 9.16 s  ClockTime = 10 s

Time = 30

DILUPBiCGStab:  Solving for Ux, Initial residual = 9.18358e-07, Final residual = 3.83478e-09, No Iterations 1
DILUPBiCGStab:  Solving for Uy, Initial residual = 0.00146869, Final residual = 6.89524e-06, No Iterations 1
DILUPBiCGStab:  Solving for Uz, Initial residual = 0.000956856, Final residual = 4.42664e-06, No Iterations 1
DILUPBiCGStab:  Solving for T, Initial residual = 0.00407061, Final residual = 0.000406493, No Iterations 13
GAMG:  Solving for p_rgh, Initial residual = 0.0498048, Final residual = 0.000325227, No Iterations 1
time step continuity errors : sum local = 0.000140337, global = 5.63894e-05, cumulative = -0.00171017
ExecutionTime = 9.4 s  ClockTime = 10 s

Time = 31

DILUPBiCGStab:  Solving for Ux, Initial residual = 8.94278e-07, Final residual = 3.76257e-09, No Iterations 1
DILUPBiCGStab:  Solving for Uy, Initial residual = 0.00141831, Final residual = 6.58876e-06, No Iterations 1
DILUPBiCGStab:  Solving for Uz, Initial residual = 0.000944208, Final residual = 4.35831e-06, No Iterations 1
DILUPBiCGStab:  Solving for T, Initial residual = 0.00400139, Final residual = 2.11615e-05, No Iterations 15
GAMG:  Solving for p_rgh, Initial residual = 0.0488204, Final residual = 0.000322444, No Iterations 1
time step continuity errors : sum local = 0.000138742, global = 5.46223e-05, cumulative = -0.00165555
ExecutionTime = 9.64 s  ClockTime = 10 s

Time = 32

DILUPBiCGStab:  Solving for Ux, Initial residual = 8.71904e-07, Final residual = 3.66815e-09, No Iterations 1
DILUPBiCGStab:  Solving for Uy, Initial residual = 0.0013782, Final residual = 6.37064e-06, No Iterations 1
DILUPBiCGStab:  Solving for Uz, Initial residual = 0.000927374, Final residual = 4.30794e-06, No Iterations 1
DILUPBiCGStab:  Solving for T, Initial residual = 0.00353653, Final residual = 0.000289701, No Iterations 12
GAMG:  Solving for p_rgh, Initial residual = 0.0468789, Final residual = 0.000307316, No Iterations 1
time step continuity errors : sum local = 0.000133175, global = 6.46993e-05, cumulative = -0.00159085
ExecutionTime = 9.88 s  ClockTime = 10 s

Time = 33

DILUPBiCGStab:  Solving for Ux, Initial residual = 8.5072e-07, Final residual = 3.58374e-09, No Iterations 1
DILUPBiCGStab:  Solving for Uy, Initial residual = 0.00135661, Final residual = 6.15074e-06, No Iterations 1
DILUPBiCGStab:  Solving for Uz, Initial residual = 0.00089469, Final residual = 4.14799e-06, No Iterations 1
DILUPBiCGStab:  Solving for T, Initial residual = 0.003755, Final residual = 0.000124177, No Iterations 14
GAMG:  Solving for p_rgh, Initial residual = 0.0468249, Final residual = 0.000310324, No Iterations 1
time step continuity errors : sum local = 0.000131047, global = 5.79833e-05, cumulative = -0.00153287
ExecutionTime = 10.12 s  ClockTime = 11 s

Time = 34

DILUPBiCGStab:  Solving for Ux, Initial residual = 8.30745e-07, Final residual = 3.47132e-09, No Iterations 1
DILUPBiCGStab:  Solving for Uy, Initial residual = 0.00132487, Final residual = 6.06078e-06, No Iterations 1
DILUPBiCGStab:  Solving for Uz, Initial residual = 0.000863678, Final residual = 4.00914e-06, No Iterations 1
DILUPBiCGStab:  Solving for T, Initial residual = 0.00352034, Final residual = 0.000298298, No Iterations 14
GAMG:  Solving for p_rgh, Initial residual = 0.0452854, Final residual = 0.000302745, No Iterations 1
time step continuity errors : sum local = 0.000129505, global = 5.15371e-05, cumulative = -0.00148133
ExecutionTime = 10.35 s  ClockTime = 11 s

Time = 35

DILUPBiCGStab:  Solving for Ux, Initial residual = 8.1145e-07, Final residual = 3.40921e-09, No Iterations 1
DILUPBiCGStab:  Solving for Uy, Initial residual = 0.00128608, Final residual = 5.88531e-06, No Iterations 1
DILUPBiCGStab:  Solving for Uz, Initial residual = 0.000839685, Final residual = 3.89428e-06, No Iterations 1
DILUPBiCGStab:  Solving for T, Initial residual = 0.00356747, Final residual = 0.000283843, No Iterations 13
GAMG:  Solving for p_rgh, Initial residual = 0.0449175, Final residual = 0.000308842, No Iterations 1
time step continuity errors : sum local = 0.000126717, global = 5.31529e-05, cumulative = -0.00142818
ExecutionTime = 10.57 s  ClockTime = 11 s

Time = 36

DILUPBiCGStab:  Solving for Ux, Initial residual = 7.92913e-07, Final residual = 3.30417e-09, No Iterations 1
DILUPBiCGStab:  Solving for Uy, Initial residual = 0.00126222, Final residual = 5.73775e-06, No Iterations 1
DILUPBiCGStab:  Solving for Uz, Initial residual = 0.00083024, Final residual = 3.82128e-06, No Iterations 1
DILUPBiCGStab:  Solving for T, Initial residual = 0.00355144, Final residual = 0.00034983, No Iterations 13
GAMG:  Solving for p_rgh, Initial residual = 0.0433599, Final residual = 0.000294581, No Iterations 1
time step continuity errors : sum local = 0.000123811, global = 4.91595e-05, cumulative = -0.00137902
ExecutionTime = 10.81 s  ClockTime = 11 s

Time = 37

DILUPBiCGStab:  Solving for Ux, Initial residual = 7.75347e-07, Final residual = 3.23084e-09, No Iterations 1
DILUPBiCGStab:  Solving for Uy, Initial residual = 0.00124379, Final residual = 5.56068e-06, No Iterations 1
DILUPBiCGStab:  Solving for Uz, Initial residual = 0.000819791, Final residual = 3.72236e-06, No Iterations 1
DILUPBiCGStab:  Solving for T, Initial residual = 0.00357338, Final residual = 0.000280357, No Iterations 11
GAMG:  Solving for p_rgh, Initial residual = 0.0434546, Final residual = 0.000307792, No Iterations 1
time step continuity errors : sum local = 0.000125269, global = 5.56936e-05, cumulative = -0.00132332
ExecutionTime = 11.05 s  ClockTime = 11 s

Time = 38

DILUPBiCGStab:  Solving for Ux, Initial residual = 7.58727e-07, Final residual = 3.16371e-09, No Iterations 1
DILUPBiCGStab:  Solving for Uy, Initial residual = 0.00122451, Final residual = 5.4229e-06, No Iterations 1
DILUPBiCGStab:  Solving for Uz, Initial residual = 0.000820205, Final residual = 3.73998e-06, No Iterations 1
DILUPBiCGStab:  Solving for T, Initial residual = 0.00341838, Final residual = 0.00029491, No Iterations 10
GAMG:  Solving for p_rgh, Initial residual = 0.0426348, Final residual = 0.000283867, No Iterations 1
time step continuity errors : sum local = 0.00011634, global = 5.42742e-05, cumulative = -0.00126905
ExecutionTime = 11.28 s  ClockTime = 12 s

Time = 39

DILUPBiCGStab:  Solving for Ux, Initial residual = 7.41811e-07, Final residual = 3.08586e-09, No Iterations 1
DILUPBiCGStab:  Solving for Uy, Initial residual = 0.00119585, Final residual = 5.25412e-06, No Iterations 1
DILUPBiCGStab:  Solving for Uz, Initial residual = 0.000811383, Final residual = 3.71944e-06, No Iterations 1
DILUPBiCGStab:  Solving for T, Initial residual = 0.00340373, Final residual = 0.000333019, No Iterations 14
GAMG:  Solving for p_rgh, Initial residual = 0.0407626, Final residual = 0.000260309, No Iterations 1
time step continuity errors : sum local = 0.000107587, global = 5.34741e-05, cumulative = -0.00121557
ExecutionTime = 11.52 s  ClockTime = 12 s

Time = 40

DILUPBiCGStab:  Solving for Ux, Initial residual = 7.24598e-07, Final residual = 3.00469e-09, No Iterations 1
DILUPBiCGStab:  Solving for Uy, Initial residual = 0.00118012, Final residual = 5.17882e-06, No Iterations 1
DILUPBiCGStab:  Solving for Uz, Initial residual = 0.000806111, Final residual = 3.67642e-06, No Iterations 1
DILUPBiCGStab:  Solving for T, Initial residual = 0.00343733, Final residual = 0.000201372, No Iterations 13
GAMG:  Solving for p_rgh, Initial residual = 0.0408085, Final residual = 0.000266896, No Iterations 1
time step continuity errors : sum local = 0.000106199, global = 4.88559e-05, cumulative = -0.00116672
ExecutionTime = 11.75 s  ClockTime = 12 s

Time = 41

DILUPBiCGStab:  Solving for Ux, Initial residual = 7.09322e-07, Final residual = 2.96623e-09, No Iterations 1
DILUPBiCGStab:  Solving for Uy, Initial residual = 0.00117845, Final residual = 5.14842e-06, No Iterations 1
DILUPBiCGStab:  Solving for Uz, Initial residual = 0.000801024, Final residual = 3.60643e-06, No Iterations 1
DILUPBiCGStab:  Solving for T, Initial residual = 0.00322044, Final residual = 0.000276975, No Iterations 14
GAMG:  Solving for p_rgh, Initial residual = 0.040592, Final residual = 0.000285213, No Iterations 1
time step continuity errors : sum local = 0.000112902, global = 4.92126e-05, cumulative = -0.00111751
ExecutionTime = 11.98 s  ClockTime = 12 s

Time = 42

DILUPBiCGStab:  Solving for Ux, Initial residual = 6.951e-07, Final residual = 2.88784e-09, No Iterations 1
DILUPBiCGStab:  Solving for Uy, Initial residual = 0.00117266, Final residual = 5.1029e-06, No Iterations 1
DILUPBiCGStab:  Solving for Uz, Initial residual = 0.000805165, Final residual = 3.62811e-06, No Iterations 1
DILUPBiCGStab:  Solving for T, Initial residual = 0.00315987, Final residual = 0.00011645, No Iterations 14
GAMG:  Solving for p_rgh, Initial residual = 0.0394448, Final residual = 0.000249932, No Iterations 1
time step continuity errors : sum local = 9.9384e-05, global = 4.49383e-05, cumulative = -0.00107257
ExecutionTime = 12.23 s  ClockTime = 13 s

Time = 43

DILUPBiCGStab:  Solving for Ux, Initial residual = 6.80194e-07, Final residual = 2.83452e-09, No Iterations 1
DILUPBiCGStab:  Solving for Uy, Initial residual = 0.00116725, Final residual = 5.0866e-06, No Iterations 1
DILUPBiCGStab:  Solving for Uz, Initial residual = 0.000808416, Final residual = 3.62675e-06, No Iterations 1
DILUPBiCGStab:  Solving for T, Initial residual = 0.00302229, Final residual = 0.000275013, No Iterations 12
GAMG:  Solving for p_rgh, Initial residual = 0.0389971, Final residual = 0.000272353, No Iterations 1
time step continuity errors : sum local = 0.000107473, global = 4.01983e-05, cumulative = -0.00103237
ExecutionTime = 12.46 s  ClockTime = 13 s

Time = 44

DILUPBiCGStab:  Solving for Ux, Initial residual = 6.66543e-07, Final residual = 2.76828e-09, No Iterations 1
DILUPBiCGStab:  Solving for Uy, Initial residual = 0.00115832, Final residual = 4.9696e-06, No Iterations 1
DILUPBiCGStab:  Solving for Uz, Initial residual = 0.000813542, Final residual = 3.63491e-06, No Iterations 1
DILUPBiCGStab:  Solving for T, Initial residual = 0.00309285, Final residual = 0.000159865, No Iterations 13
GAMG:  Solving for p_rgh, Initial residual = 0.0380812, Final residual = 0.000278143, No Iterations 1
time step continuity errors : sum local = 0.000109789, global = 4.57794e-05, cumulative = -0.00098659
ExecutionTime = 12.71 s  ClockTime = 13 s

Time = 45

DILUPBiCGStab:  Solving for Ux, Initial residual = 6.536e-07, Final residual = 2.72342e-09, No Iterations 1
DILUPBiCGStab:  Solving for Uy, Initial residual = 0.00114749, Final residual = 4.89094e-06, No Iterations 1
DILUPBiCGStab:  Solving for Uz, Initial residual = 0.000819162, Final residual = 3.63005e-06, No Iterations 1
DILUPBiCGStab:  Solving for T, Initial residual = 0.00299231, Final residual = 7.71094e-05, No Iterations 15
GAMG:  Solving for p_rgh, Initial residual = 0.0364702, Final residual = 0.000245523, No Iterations 1
time step continuity errors : sum local = 9.78894e-05, global = 3.87415e-05, cumulative = -0.000947848
ExecutionTime = 12.96 s  ClockTime = 13 s

Time = 46

DILUPBiCGStab:  Solving for Ux, Initial residual = 6.40263e-07, Final residual = 2.66955e-09, No Iterations 1
DILUPBiCGStab:  Solving for Uy, Initial residual = 0.00113252, Final residual = 4.77101e-06, No Iterations 1
DILUPBiCGStab:  Solving for Uz, Initial residual = 0.000833887, Final residual = 3.6808e-06, No Iterations 1
DILUPBiCGStab:  Solving for T, Initial residual = 0.002837, Final residual = 0.000278196, No Iterations 12
GAMG:  Solving for p_rgh, Initial residual = 0.0370604, Final residual = 0.000245855, No Iterations 1
time step continuity errors : sum local = 9.5191e-05, global = 3.69568e-05, cumulative = -0.000910892
ExecutionTime = 13.2 s  ClockTime = 14 s

Time = 47

DILUPBiCGStab:  Solving for Ux, Initial residual = 6.27537e-07, Final residual = 2.59542e-09, No Iterations 1
DILUPBiCGStab:  Solving for Uy, Initial residual = 0.00112047, Final residual = 4.68674e-06, No Iterations 1
DILUPBiCGStab:  Solving for Uz, Initial residual = 0.000835509, Final residual = 3.68027e-06, No Iterations 1
DILUPBiCGStab:  Solving for T, Initial residual = 0.00298054, Final residual = 0.000237738, No Iterations 13
GAMG:  Solving for p_rgh, Initial residual = 0.0357394, Final residual = 0.000251797, No Iterations 1
time step continuity errors : sum local = 9.84182e-05, global = 3.68073e-05, cumulative = -0.000874084
ExecutionTime = 13.48 s  ClockTime = 14 s

Time = 48

DILUPBiCGStab:  Solving for Ux, Initial residual = 6.15088e-07, Final residual = 2.5687e-09, No Iterations 1
DILUPBiCGStab:  Solving for Uy, Initial residual = 0.00109943, Final residual = 4.63785e-06, No Iterations 1
DILUPBiCGStab:  Solving for Uz, Initial residual = 0.000843153, Final residual = 3.71283e-06, No Iterations 1
DILUPBiCGStab:  Solving for T, Initial residual = 0.00288545, Final residual = 0.00013259, No Iterations 15
GAMG:  Solving for p_rgh, Initial residual = 0.0349523, Final residual = 0.000248776, No Iterations 1
time step continuity errors : sum local = 9.75076e-05, global = 3.59228e-05, cumulative = -0.000838161
ExecutionTime = 13.78 s  ClockTime = 14 s

Time = 49

DILUPBiCGStab:  Solving for Ux, Initial residual = 6.02868e-07, Final residual = 2.52842e-09, No Iterations 1
DILUPBiCGStab:  Solving for Uy, Initial residual = 0.00108216, Final residual = 4.55633e-06, No Iterations 1
DILUPBiCGStab:  Solving for Uz, Initial residual = 0.000856984, Final residual = 3.78531e-06, No Iterations 1
DILUPBiCGStab:  Solving for T, Initial residual = 0.00276288, Final residual = 0.00016027, No Iterations 13
GAMG:  Solving for p_rgh, Initial residual = 0.0347563, Final residual = 0.000233272, No Iterations 1
time step continuity errors : sum local = 9.06067e-05, global = 3.45609e-05, cumulative = -0.000803601
ExecutionTime = 14.08 s  ClockTime = 15 s

Time = 50

DILUPBiCGStab:  Solving for Ux, Initial residual = 5.91074e-07, Final residual = 2.45412e-09, No Iterations 1
DILUPBiCGStab:  Solving for Uy, Initial residual = 0.00106229, Final residual = 4.42517e-06, No Iterations 1
DILUPBiCGStab:  Solving for Uz, Initial residual = 0.000873541, Final residual = 3.83369e-06, No Iterations 1
DILUPBiCGStab:  Solving for T, Initial residual = 0.00272324, Final residual = 0.000188493, No Iterations 14
GAMG:  Solving for p_rgh, Initial residual = 0.0346745, Final residual = 0.000238516, No Iterations 1
time step continuity errors : sum local = 9.14431e-05, global = 3.69292e-05, cumulative = -0.000766671
ExecutionTime = 14.32 s  ClockTime = 15 s

Time = 51

DILUPBiCGStab:  Solving for Ux, Initial residual = 5.79937e-07, Final residual = 2.41036e-09, No Iterations 1
DILUPBiCGStab:  Solving for Uy, Initial residual = 0.00103379, Final residual = 4.28764e-06, No Iterations 1
DILUPBiCGStab:  Solving for Uz, Initial residual = 0.000886212, Final residual = 3.88306e-06, No Iterations 1
DILUPBiCGStab:  Solving for T, Initial residual = 0.00272015, Final residual = 7.83278e-05, No Iterations 14
GAMG:  Solving for p_rgh, Initial residual = 0.0337386, Final residual = 0.000232243, No Iterations 1
time step continuity errors : sum local = 8.92427e-05, global = 4.31292e-05, cumulative = -0.000723542
ExecutionTime = 14.58 s  ClockTime = 15 s

Time = 52

DILUPBiCGStab:  Solving for Ux, Initial residual = 5.6896e-07, Final residual = 2.36599e-09, No Iterations 1
DILUPBiCGStab:  Solving for Uy, Initial residual = 0.00100265, Final residual = 4.13926e-06, No Iterations 1
DILUPBiCGStab:  Solving for Uz, Initial residual = 0.000897791, Final residual = 3.90021e-06, No Iterations 1
DILUPBiCGStab:  Solving for T, Initial residual = 0.00251708, Final residual = 0.000242295, No Iterations 12
GAMG:  Solving for p_rgh, Initial residual = 0.0329523, Final residual = 0.000207773, No Iterations 1
time step continuity errors : sum local = 7.98753e-05, global = 3.6934e-05, cumulative = -0.000686608
ExecutionTime = 14.81 s  ClockTime = 15 s

Time = 53

DILUPBiCGStab:  Solving for Ux, Initial residual = 5.57788e-07, Final residual = 2.32766e-09, No Iterations 1
DILUPBiCGStab:  Solving for Uy, Initial residual = 0.000976867, Final residual = 4.04176e-06, No Iterations 1
DILUPBiCGStab:  Solving for Uz, Initial residual = 0.000915933, Final residual = 3.99691e-06, No Iterations 1
DILUPBiCGStab:  Solving for T, Initial residual = 0.00265582, Final residual = 0.000178212, No Iterations 13
GAMG:  Solving for p_rgh, Initial residual = 0.0326014, Final residual = 0.000211354, No Iterations 1
time step continuity errors : sum local = 7.9689e-05, global = 4.00218e-05, cumulative = -0.000646586
ExecutionTime = 15.04 s  ClockTime = 15 s

Time = 54

DILUPBiCGStab:  Solving for Ux, Initial residual = 5.47111e-07, Final residual = 2.28118e-09, No Iterations 1
DILUPBiCGStab:  Solving for Uy, Initial residual = 0.000945771, Final residual = 3.93036e-06, No Iterations 1
DILUPBiCGStab:  Solving for Uz, Initial residual = 0.000939784, Final residual = 4.04821e-06, No Iterations 1
DILUPBiCGStab:  Solving for T, Initial residual = 0.00260116, Final residual = 0.000177908, No Iterations 12
GAMG:  Solving for p_rgh, Initial residual = 0.0319229, Final residual = 0.000221921, No Iterations 1
time step continuity errors : sum local = 8.39026e-05, global = 3.81092e-05, cumulative = -0.000608477
ExecutionTime = 15.27 s  ClockTime = 16 s

Time = 55

DILUPBiCGStab:  Solving for Ux, Initial residual = 5.37048e-07, Final residual = 2.22207e-09, No Iterations 1
DILUPBiCGStab:  Solving for Uy, Initial residual = 0.000919265, Final residual = 3.77425e-06, No Iterations 1
DILUPBiCGStab:  Solving for Uz, Initial residual = 0.00096622, Final residual = 4.10382e-06, No Iterations 1
DILUPBiCGStab:  Solving for T, Initial residual = 0.00256734, Final residual = 0.00025227, No Iterations 11
GAMG:  Solving for p_rgh, Initial residual = 0.0307584, Final residual = 0.000205555, No Iterations 1
time step continuity errors : sum local = 7.88583e-05, global = 3.57582e-05, cumulative = -0.000572719
ExecutionTime = 15.49 s  ClockTime = 16 s

Time = 56

DILUPBiCGStab:  Solving for Ux, Initial residual = 5.27212e-07, Final residual = 2.18393e-09, No Iterations 1
DILUPBiCGStab:  Solving for Uy, Initial residual = 0.000895487, Final residual = 3.64793e-06, No Iterations 1
DILUPBiCGStab:  Solving for Uz, Initial residual = 0.000998419, Final residual = 4.23603e-06, No Iterations 1
DILUPBiCGStab:  Solving for T, Initial residual = 0.00257899, Final residual = 7.77599e-05, No Iterations 14
GAMG:  Solving for p_rgh, Initial residual = 0.0311388, Final residual = 0.000207563, No Iterations 1
time step continuity errors : sum local = 7.83606e-05, global = 3.37798e-05, cumulative = -0.000538939
ExecutionTime = 15.73 s  ClockTime = 16 s

Time = 57

DILUPBiCGStab:  Solving for Ux, Initial residual = 5.17957e-07, Final residual = 2.13958e-09, No Iterations 1
DILUPBiCGStab:  Solving for Uy, Initial residual = 0.000862708, Final residual = 3.51603e-06, No Iterations 1
DILUPBiCGStab:  Solving for Uz, Initial residual = 0.00102462, Final residual = 4.36996e-06, No Iterations 1
DILUPBiCGStab:  Solving for T, Initial residual = 0.00235756, Final residual = 8.94785e-05, No Iterations 16
GAMG:  Solving for p_rgh, Initial residual = 0.029885, Final residual = 0.000212264, No Iterations 1
time step continuity errors : sum local = 8.09606e-05, global = 2.97815e-05, cumulative = -0.000509158
ExecutionTime = 16 s  ClockTime = 16 s

Time = 58

DILUPBiCGStab:  Solving for Ux, Initial residual = 5.08779e-07, Final residual = 2.10374e-09, No Iterations 1
DILUPBiCGStab:  Solving for Uy, Initial residual = 0.000829682, Final residual = 3.37651e-06, No Iterations 1
DILUPBiCGStab:  Solving for Uz, Initial residual = 0.00107092, Final residual = 4.52831e-06, No Iterations 1
DILUPBiCGStab:  Solving for T, Initial residual = 0.00233903, Final residual = 0.000195898, No Iterations 13
GAMG:  Solving for p_rgh, Initial residual = 0.0294936, Final residual = 0.000191967, No Iterations 1
time step continuity errors : sum local = 7.27041e-05, global = 3.58096e-05, cumulative = -0.000473348
ExecutionTime = 16.23 s  ClockTime = 17 s

Time = 59

DILUPBiCGStab:  Solving for Ux, Initial residual = 4.99666e-07, Final residual = 2.05436e-09, No Iterations 1
DILUPBiCGStab:  Solving for Uy, Initial residual = 0.000793404, Final residual = 3.22854e-06, No Iterations 1
DILUPBiCGStab:  Solving for Uz, Initial residual = 0.00110587, Final residual = 4.70504e-06, No Iterations 1
DILUPBiCGStab:  Solving for T, Initial residual = 0.00238819, Final residual = 0.000224166, No Iterations 13
GAMG:  Solving for p_rgh, Initial residual = 0.0293682, Final residual = 0.000196879, No Iterations 1
time step continuity errors : sum local = 7.42777e-05, global = 3.79072e-05, cumulative = -0.000435441
ExecutionTime = 16.46 s  ClockTime = 17 s

Time = 60

DILUPBiCGStab:  Solving for Ux, Initial residual = 4.90768e-07, Final residual = 2.02843e-09, No Iterations 1
DILUPBiCGStab:  Solving for Uy, Initial residual = 0.000750397, Final residual = 3.04805e-06, No Iterations 1
DILUPBiCGStab:  Solving for Uz, Initial residual = 0.00114495, Final residual = 4.87796e-06, No Iterations 1
DILUPBiCGStab:  Solving for T, Initial residual = 0.00238541, Final residual = 0.000102427, No Iterations 18
GAMG:  Solving for p_rgh, Initial residual = 0.0284681, Final residual = 0.000197316, No Iterations 1
time step continuity errors : sum local = 7.44788e-05, global = 3.57314e-05, cumulative = -0.00039971
ExecutionTime = 16.7 s  ClockTime = 17 s

Time = 61

DILUPBiCGStab:  Solving for Ux, Initial residual = 4.82256e-07, Final residual = 1.97362e-09, No Iterations 1
DILUPBiCGStab:  Solving for Uy, Initial residual = 0.000710008, Final residual = 2.8796e-06, No Iterations 1
DILUPBiCGStab:  Solving for Uz, Initial residual = 0.00119742, Final residual = 5.06732e-06, No Iterations 1
DILUPBiCGStab:  Solving for T, Initial residual = 0.00221785, Final residual = 0.000183359, No Iterations 10
GAMG:  Solving for p_rgh, Initial residual = 0.0279034, Final residual = 0.000189774, No Iterations 1
time step continuity errors : sum local = 7.17428e-05, global = 4.12069e-05, cumulative = -0.000358503
ExecutionTime = 16.94 s  ClockTime = 17 s

Time = 62

DILUPBiCGStab:  Solving for Ux, Initial residual = 4.73958e-07, Final residual = 1.95403e-09, No Iterations 1
DILUPBiCGStab:  Solving for Uy, Initial residual = 0.000673062, Final residual = 2.73956e-06, No Iterations 1
DILUPBiCGStab:  Solving for Uz, Initial residual = 0.00124473, Final residual = 5.26347e-06, No Iterations 1
DILUPBiCGStab:  Solving for T, Initial residual = 0.00226399, Final residual = 6.07411e-05, No Iterations 13
GAMG:  Solving for p_rgh, Initial residual = 0.0279102, Final residual = 0.000191494, No Iterations 1
time step continuity errors : sum local = 7.05551e-05, global = 3.42164e-05, cumulative = -0.000324286
ExecutionTime = 17.17 s  ClockTime = 18 s

Time = 63

DILUPBiCGStab:  Solving for Ux, Initial residual = 4.65864e-07, Final residual = 1.91899e-09, No Iterations 1
DILUPBiCGStab:  Solving for Uy, Initial residual = 0.000633281, Final residual = 2.58463e-06, No Iterations 1
DILUPBiCGStab:  Solving for Uz, Initial residual = 0.00129616, Final residual = 5.47529e-06, No Iterations 1
DILUPBiCGStab:  Solving for T, Initial residual = 0.00214186, Final residual = 0.000136643, No Iterations 16
GAMG:  Solving for p_rgh, Initial residual = 0.0270356, Final residual = 0.00019473, No Iterations 1
time step continuity errors : sum local = 7.31225e-05, global = 3.66464e-05, cumulative = -0.00028764
ExecutionTime = 17.4 s  ClockTime = 18 s

Time = 64

DILUPBiCGStab:  Solving for Ux, Initial residual = 4.57971e-07, Final residual = 1.87649e-09, No Iterations 1
DILUPBiCGStab:  Solving for Uy, Initial residual = 0.000597189, Final residual = 2.411e-06, No Iterations 1
DILUPBiCGStab:  Solving for Uz, Initial residual = 0.00136611, Final residual = 5.81443e-06, No Iterations 1
DILUPBiCGStab:  Solving for T, Initial residual = 0.00217381, Final residual = 0.000147903, No Iterations 13
GAMG:  Solving for p_rgh, Initial residual = 0.0262505, Final residual = 0.000181085, No Iterations 1
time step continuity errors : sum local = 6.87777e-05, global = 2.92038e-05, cumulative = -0.000258436
ExecutionTime = 17.64 s  ClockTime = 18 s

Time = 65

DILUPBiCGStab:  Solving for Ux, Initial residual = 4.50214e-07, Final residual = 1.8425e-09, No Iterations 1
DILUPBiCGStab:  Solving for Uy, Initial residual = 0.000562209, Final residual = 2.25266e-06, No Iterations 1
DILUPBiCGStab:  Solving for Uz, Initial residual = 0.001405, Final residual = 5.9444e-06, No Iterations 1
DILUPBiCGStab:  Solving for T, Initial residual = 0.00213854, Final residual = 9.74383e-06, No Iterations 16
GAMG:  Solving for p_rgh, Initial residual = 0.0263944, Final residual = 0.000200757, No Iterations 1
time step continuity errors : sum local = 7.46546e-05, global = 3.22906e-05, cumulative = -0.000226146
ExecutionTime = 17.88 s  ClockTime = 18 s

Time = 66

DILUPBiCGStab:  Solving for Ux, Initial residual = 4.42845e-07, Final residual = 1.81125e-09, No Iterations 1
DILUPBiCGStab:  Solving for Uy, Initial residual = 0.000529323, Final residual = 2.10147e-06, No Iterations 1
DILUPBiCGStab:  Solving for Uz, Initial residual = 0.00142839, Final residual = 6.00654e-06, No Iterations 1
DILUPBiCGStab:  Solving for T, Initial residual = 0.00200024, Final residual = 0.000176275, No Iterations 12
GAMG:  Solving for p_rgh, Initial residual = 0.0255029, Final residual = 0.000205347, No Iterations 1
time step continuity errors : sum local = 7.5774e-05, global = 3.16082e-05, cumulative = -0.000194537
ExecutionTime = 18.11 s  ClockTime = 19 s

Time = 67

DILUPBiCGStab:  Solving for Ux, Initial residual = 4.35764e-07, Final residual = 1.76488e-09, No Iterations 1
DILUPBiCGStab:  Solving for Uy, Initial residual = 0.000500478, Final residual = 1.98418e-06, No Iterations 1
DILUPBiCGStab:  Solving for Uz, Initial residual = 0.00143289, Final residual = 5.97268e-06, No Iterations 1
DILUPBiCGStab:  Solving for T, Initial residual = 0.00213184, Final residual = 0.000186028, No Iterations 16
GAMG:  Solving for p_rgh, Initial residual = 0.0246332, Final residual = 0.000189014, No Iterations 1
time step continuity errors : sum local = 7.0101e-05, global = 3.32691e-05, cumulative = -0.000161268
ExecutionTime = 18.35 s  ClockTime = 19 s

Time = 68

DILUPBiCGStab:  Solving for Ux, Initial residual = 4.28648e-07, Final residual = 1.73857e-09, No Iterations 1
DILUPBiCGStab:  Solving for Uy, Initial residual = 0.000470608, Final residual = 1.87743e-06, No Iterations 1
DILUPBiCGStab:  Solving for Uz, Initial residual = 0.00140163, Final residual = 5.86009e-06, No Iterations 1
DILUPBiCGStab:  Solving for T, Initial residual = 0.00208613, Final residual = 8.73558e-05, No Iterations 12
GAMG:  Solving for p_rgh, Initial residual = 0.0242894, Final residual = 0.000179955, No Iterations 1
time step continuity errors : sum local = 6.64204e-05, global = 3.23615e-05, cumulative = -0.000128907
ExecutionTime = 18.57 s  ClockTime = 19 s

Time = 69

DILUPBiCGStab:  Solving for Ux, Initial residual = 4.21757e-07, Final residual = 1.69495e-09, No Iterations 1
DILUPBiCGStab:  Solving for Uy, Initial residual = 0.000442946, Final residual = 1.74582e-06, No Iterations 1
DILUPBiCGStab:  Solving for Uz, Initial residual = 0.00140521, Final residual = 5.83569e-06, No Iterations 1
DILUPBiCGStab:  Solving for T, Initial residual = 0.00199136, Final residual = 1.19767e-05, No Iterations 16
GAMG:  Solving for p_rgh, Initial residual = 0.023946, Final residual = 0.000188006, No Iterations 1
time step continuity errors : sum local = 6.89235e-05, global = 3.05623e-05, cumulative = -9.83445e-05
ExecutionTime = 18.83 s  ClockTime = 19 s

Time = 70

DILUPBiCGStab:  Solving for Ux, Initial residual = 4.15124e-07, Final residual = 1.66714e-09, No Iterations 1
DILUPBiCGStab:  Solving for Uy, Initial residual = 0.000419009, Final residual = 1.65647e-06, No Iterations 1
DILUPBiCGStab:  Solving for Uz, Initial residual = 0.00141017, Final residual = 5.85101e-06, No Iterations 1
DILUPBiCGStab:  Solving for T, Initial residual = 0.00191767, Final residual = 0.00015438, No Iterations 12
GAMG:  Solving for p_rgh, Initial residual = 0.0236171, Final residual = 0.000175134, No Iterations 1
time step continuity errors : sum local = 6.39631e-05, global = 3.38661e-05, cumulative = -6.44784e-05
ExecutionTime = 19.06 s  ClockTime = 20 s

Time = 71

DILUPBiCGStab:  Solving for Ux, Initial residual = 4.08414e-07, Final residual = 1.62649e-09, No Iterations 1
DILUPBiCGStab:  Solving for Uy, Initial residual = 0.000394101, Final residual = 1.54197e-06, No Iterations 1
DILUPBiCGStab:  Solving for Uz, Initial residual = 0.00139062, Final residual = 5.74127e-06, No Iterations 1
DILUPBiCGStab:  Solving for T, Initial residual = 0.00201958, Final residual = 0.000187289, No Iterations 13
GAMG:  Solving for p_rgh, Initial residual = 0.0232123, Final residual = 0.000174457, No Iterations 1
time step continuity errors : sum local = 6.3969e-05, global = 3.6806e-05, cumulative = -2.76724e-05
ExecutionTime = 19.31 s  ClockTime = 20 s

Time = 72

DILUPBiCGStab:  Solving for Ux, Initial residual = 4.02101e-07, Final residual = 1.60699e-09, No Iterations 1
DILUPBiCGStab:  Solving for Uy, Initial residual = 0.000373354, Final residual = 1.46601e-06, No Iterations 1
DILUPBiCGStab:  Solving for Uz, Initial residual = 0.00139328, Final residual = 5.7471e-06, No Iterations 1
DILUPBiCGStab:  Solving for T, Initial residual = 0.00191678, Final residual = 0.00011872, No Iterations 13
GAMG:  Solving for p_rgh, Initial residual = 0.0233091, Final residual = 0.000171167, No Iterations 1
time step continuity errors : sum local = 6.19635e-05, global = 3.08148e-05, cumulative = 3.14241e-06
ExecutionTime = 19.55 s  ClockTime = 20 s

Time = 73

DILUPBiCGStab:  Solving for Ux, Initial residual = 3.95865e-07, Final residual = 1.58129e-09, No Iterations 1
DILUPBiCGStab:  Solving for Uy, Initial residual = 0.00035375, Final residual = 1.39146e-06, No Iterations 1
DILUPBiCGStab:  Solving for Uz, Initial residual = 0.00137718, Final residual = 5.6792e-06, No Iterations 1
DILUPBiCGStab:  Solving for T, Initial residual = 0.00190364, Final residual = 0.00011856, No Iterations 13
GAMG:  Solving for p_rgh, Initial residual = 0.0229231, Final residual = 0.00016424, No Iterations 1
time step continuity errors : sum local = 5.87404e-05, global = 2.74556e-05, cumulative = 3.0598e-05
ExecutionTime = 19.78 s  ClockTime = 20 s

Time = 74

DILUPBiCGStab:  Solving for Ux, Initial residual = 3.897e-07, Final residual = 1.55126e-09, No Iterations 1
DILUPBiCGStab:  Solving for Uy, Initial residual = 0.000334539, Final residual = 1.30612e-06, No Iterations 1
DILUPBiCGStab:  Solving for Uz, Initial residual = 0.00133795, Final residual = 5.4868e-06, No Iterations 1
DILUPBiCGStab:  Solving for T, Initial residual = 0.0018663, Final residual = 0.000156045, No Iterations 13
GAMG:  Solving for p_rgh, Initial residual = 0.0223673, Final residual = 0.000178468, No Iterations 1
time step continuity errors : sum local = 6.51577e-05, global = 2.65928e-05, cumulative = 5.71908e-05
ExecutionTime = 20.02 s  ClockTime = 20 s

Time = 75

DILUPBiCGStab:  Solving for Ux, Initial residual = 3.83839e-07, Final residual = 1.51628e-09, No Iterations 1
DILUPBiCGStab:  Solving for Uy, Initial residual = 0.000315268, Final residual = 1.2326e-06, No Iterations 1
DILUPBiCGStab:  Solving for Uz, Initial residual = 0.00131731, Final residual = 5.41987e-06, No Iterations 1
DILUPBiCGStab:  Solving for T, Initial residual = 0.00185222, Final residual = 0.000155145, No Iterations 13
GAMG:  Solving for p_rgh, Initial residual = 0.0224871, Final residual = 0.000168863, No Iterations 1
time step continuity errors : sum local = 6.07209e-05, global = 2.74499e-05, cumulative = 8.46407e-05
ExecutionTime = 20.25 s  ClockTime = 21 s

Time = 76

DILUPBiCGStab:  Solving for Ux, Initial residual = 3.78074e-07, Final residual = 1.48764e-09, No Iterations 1
DILUPBiCGStab:  Solving for Uy, Initial residual = 0.000297296, Final residual = 1.14965e-06, No Iterations 1
DILUPBiCGStab:  Solving for Uz, Initial residual = 0.00129601, Final residual = 5.24849e-06, No Iterations 1
DILUPBiCGStab:  Solving for T, Initial residual = 0.0018738, Final residual = 6.27791e-05, No Iterations 13
GAMG:  Solving for p_rgh, Initial residual = 0.0214743, Final residual = 0.000170244, No Iterations 1
time step continuity errors : sum local = 6.18231e-05, global = 2.76322e-05, cumulative = 0.000112273
ExecutionTime = 20.49 s  ClockTime = 21 s

Time = 77

DILUPBiCGStab:  Solving for Ux, Initial residual = 3.72422e-07, Final residual = 1.46578e-09, No Iterations 1
DILUPBiCGStab:  Solving for Uy, Initial residual = 0.00028128, Final residual = 1.08605e-06, No Iterations 1
DILUPBiCGStab:  Solving for Uz, Initial residual = 0.00127004, Final residual = 5.17206e-06, No Iterations 1
DILUPBiCGStab:  Solving for T, Initial residual = 0.0017874, Final residual = 0.000166247, No Iterations 12
GAMG:  Solving for p_rgh, Initial residual = 0.0219587, Final residual = 0.000170522, No Iterations 1
time step continuity errors : sum local = 5.99799e-05, global = 2.87182e-05, cumulative = 0.000140991
ExecutionTime = 20.71 s  ClockTime = 21 s

Time = 78

DILUPBiCGStab:  Solving for Ux, Initial residual = 3.66932e-07, Final residual = 1.43678e-09, No Iterations 1
DILUPBiCGStab:  Solving for Uy, Initial residual = 0.000267464, Final residual = 1.02596e-06, No Iterations 1
DILUPBiCGStab:  Solving for Uz, Initial residual = 0.00126573, Final residual = 5.15621e-06, No Iterations 1
DILUPBiCGStab:  Solving for T, Initial residual = 0.00186457, Final residual = 1.74161e-05, No Iterations 13
GAMG:  Solving for p_rgh, Initial residual = 0.0212233, Final residual = 0.000170574, No Iterations 1
time step continuity errors : sum local = 6.06136e-05, global = 2.91671e-05, cumulative = 0.000170158
ExecutionTime = 20.94 s  ClockTime = 21 s

Time = 79

DILUPBiCGStab:  Solving for Ux, Initial residual = 3.61527e-07, Final residual = 1.3995e-09, No Iterations 1
DILUPBiCGStab:  Solving for Uy, Initial residual = 0.000253263, Final residual = 9.67641e-07, No Iterations 1
DILUPBiCGStab:  Solving for Uz, Initial residual = 0.00126611, Final residual = 5.16701e-06, No Iterations 1
DILUPBiCGStab:  Solving for T, Initial residual = 0.00169144, Final residual = 0.000142299, No Iterations 11
GAMG:  Solving for p_rgh, Initial residual = 0.0210666, Final residual = 0.000166117, No Iterations 1
time step continuity errors : sum local = 5.81534e-05, global = 3.02381e-05, cumulative = 0.000200396
ExecutionTime = 21.16 s  ClockTime = 22 s

Time = 80

DILUPBiCGStab:  Solving for Ux, Initial residual = 3.56032e-07, Final residual = 1.36829e-09, No Iterations 1
DILUPBiCGStab:  Solving for Uy, Initial residual = 0.000240713, Final residual = 9.18321e-07, No Iterations 1
DILUPBiCGStab:  Solving for Uz, Initial residual = 0.00126682, Final residual = 5.18081e-06, No Iterations 1
DILUPBiCGStab:  Solving for T, Initial residual = 0.00176832, Final residual = 0.000102468, No Iterations 12
GAMG:  Solving for p_rgh, Initial residual = 0.0207297, Final residual = 0.000160521, No Iterations 1
time step continuity errors : sum local = 5.64579e-05, global = 2.84176e-05, cumulative = 0.000228814
ExecutionTime = 21.4 s  ClockTime = 22 s

Time = 81

DILUPBiCGStab:  Solving for Ux, Initial residual = 3.50969e-07, Final residual = 1.35615e-09, No Iterations 1
DILUPBiCGStab:  Solving for Uy, Initial residual = 0.000229623, Final residual = 8.83273e-07, No Iterations 1
DILUPBiCGStab:  Solving for Uz, Initial residual = 0.00129682, Final residual = 5.34531e-06, No Iterations 1
DILUPBiCGStab:  Solving for T, Initial residual = 0.00174146, Final residual = 9.75828e-05, No Iterations 11
GAMG:  Solving for p_rgh, Initial residual = 0.0201946, Final residual = 0.000150501, No Iterations 1
time step continuity errors : sum local = 5.36272e-05, global = 2.81284e-05, cumulative = 0.000256942
ExecutionTime = 21.63 s  ClockTime = 22 s

Time = 82

DILUPBiCGStab:  Solving for Ux, Initial residual = 3.45812e-07, Final residual = 1.32908e-09, No Iterations 1
DILUPBiCGStab:  Solving for Uy, Initial residual = 0.00021826, Final residual = 8.38902e-07, No Iterations 1
DILUPBiCGStab:  Solving for Uz, Initial residual = 0.00130568, Final residual = 5.35572e-06, No Iterations 1
DILUPBiCGStab:  Solving for T, Initial residual = 0.00173002, Final residual = 0.000162112, No Iterations 11
GAMG:  Solving for p_rgh, Initial residual = 0.0203477, Final residual = 0.000164789, No Iterations 1
time step continuity errors : sum local = 5.74751e-05, global = 2.83865e-05, cumulative = 0.000285329
ExecutionTime = 21.86 s  ClockTime = 22 s

Time = 83

DILUPBiCGStab:  Solving for Ux, Initial residual = 3.40889e-07, Final residual = 1.30603e-09, No Iterations 1
DILUPBiCGStab:  Solving for Uy, Initial residual = 0.000209185, Final residual = 7.90573e-07, No Iterations 1
DILUPBiCGStab:  Solving for Uz, Initial residual = 0.00128517, Final residual = 5.25798e-06, No Iterations 1
DILUPBiCGStab:  Solving for T, Initial residual = 0.00177098, Final residual = 0.000162853, No Iterations 11
GAMG:  Solving for p_rgh, Initial residual = 0.0200611, Final residual = 0.000162677, No Iterations 1
time step continuity errors : sum local = 5.65262e-05, global = 2.68209e-05, cumulative = 0.00031215
ExecutionTime = 22.1 s  ClockTime = 23 s

Time = 84

DILUPBiCGStab:  Solving for Ux, Initial residual = 3.35954e-07, Final residual = 1.28484e-09, No Iterations 1
DILUPBiCGStab:  Solving for Uy, Initial residual = 0.000199523, Final residual = 7.54962e-07, No Iterations 1
DILUPBiCGStab:  Solving for Uz, Initial residual = 0.00126236, Final residual = 5.19336e-06, No Iterations 1
DILUPBiCGStab:  Solving for T, Initial residual = 0.001681, Final residual = 0.000106735, No Iterations 14
GAMG:  Solving for p_rgh, Initial residual = 0.0197761, Final residual = 0.000154651, No Iterations 1
time step continuity errors : sum local = 5.40824e-05, global = 2.08908e-05, cumulative = 0.000333041
ExecutionTime = 22.33 s  ClockTime = 23 s

Time = 85

DILUPBiCGStab:  Solving for Ux, Initial residual = 3.31156e-07, Final residual = 1.25872e-09, No Iterations 1
DILUPBiCGStab:  Solving for Uy, Initial residual = 0.000190581, Final residual = 7.1939e-07, No Iterations 1
DILUPBiCGStab:  Solving for Uz, Initial residual = 0.00124676, Final residual = 5.16544e-06, No Iterations 1
DILUPBiCGStab:  Solving for T, Initial residual = 0.0016509, Final residual = 0.000163553, No Iterations 11
GAMG:  Solving for p_rgh, Initial residual = 0.0194923, Final residual = 0.000158115, No Iterations 1
time step continuity errors : sum local = 5.53343e-05, global = 2.04023e-05, cumulative = 0.000353443
ExecutionTime = 22.56 s  ClockTime = 23 s

Time = 86

DILUPBiCGStab:  Solving for Ux, Initial residual = 3.26372e-07, Final residual = 1.24718e-09, No Iterations 1
DILUPBiCGStab:  Solving for Uy, Initial residual = 0.000184211, Final residual = 6.93087e-07, No Iterations 1
DILUPBiCGStab:  Solving for Uz, Initial residual = 0.00123897, Final residual = 5.12892e-06, No Iterations 1
DILUPBiCGStab:  Solving for T, Initial residual = 0.00169807, Final residual = 8.19338e-05, No Iterations 11
GAMG:  Solving for p_rgh, Initial residual = 0.0194991, Final residual = 0.000159397, No Iterations 1
time step continuity errors : sum local = 5.5781e-05, global = 2.03841e-05, cumulative = 0.000373827
ExecutionTime = 22.78 s  ClockTime = 23 s

Time = 87

DILUPBiCGStab:  Solving for Ux, Initial residual = 3.21777e-07, Final residual = 1.21732e-09, No Iterations 1
DILUPBiCGStab:  Solving for Uy, Initial residual = 0.000177519, Final residual = 6.71454e-07, No Iterations 1
DILUPBiCGStab:  Solving for Uz, Initial residual = 0.00125526, Final residual = 5.17973e-06, No Iterations 1
DILUPBiCGStab:  Solving for T, Initial residual = 0.00159859, Final residual = 3.03822e-05, No Iterations 14
GAMG:  Solving for p_rgh, Initial residual = 0.0189381, Final residual = 0.000150392, No Iterations 1
time step continuity errors : sum local = 5.20756e-05, global = 2.2946e-05, cumulative = 0.000396773
ExecutionTime = 23.02 s  ClockTime = 23 s

Time = 88

DILUPBiCGStab:  Solving for Ux, Initial residual = 3.17178e-07, Final residual = 1.18145e-09, No Iterations 1
DILUPBiCGStab:  Solving for Uy, Initial residual = 0.000171098, Final residual = 6.40044e-07, No Iterations 1
DILUPBiCGStab:  Solving for Uz, Initial residual = 0.00126284, Final residual = 5.18608e-06, No Iterations 1
DILUPBiCGStab:  Solving for T, Initial residual = 0.00154423, Final residual = 0.000130323, No Iterations 11
GAMG:  Solving for p_rgh, Initial residual = 0.0187993, Final residual = 0.000143062, No Iterations 1
time step continuity errors : sum local = 4.87489e-05, global = 2.13604e-05, cumulative = 0.000418133
ExecutionTime = 23.24 s  ClockTime = 24 s

Time = 89

DILUPBiCGStab:  Solving for Ux, Initial residual = 3.12603e-07, Final residual = 1.17115e-09, No Iterations 1
DILUPBiCGStab:  Solving for Uy, Initial residual = 0.000164471, Final residual = 6.08523e-07, No Iterations 1
DILUPBiCGStab:  Solving for Uz, Initial residual = 0.00127836, Final residual = 5.26701e-06, No Iterations 1
DILUPBiCGStab:  Solving for T, Initial residual = 0.00162905, Final residual = 4.05965e-05, No Iterations 14
GAMG:  Solving for p_rgh, Initial residual = 0.0185788, Final residual = 0.00015081, No Iterations 1
time step continuity errors : sum local = 5.15735e-05, global = 1.93604e-05, cumulative = 0.000437494
ExecutionTime = 23.49 s  ClockTime = 24 s

Time = 90

DILUPBiCGStab:  Solving for Ux, Initial residual = 3.08226e-07, Final residual = 1.14227e-09, No Iterations 1
DILUPBiCGStab:  Solving for Uy, Initial residual = 0.000159232, Final residual = 5.91327e-07, No Iterations 1
DILUPBiCGStab:  Solving for Uz, Initial residual = 0.00130839, Final residual = 5.42317e-06, No Iterations 1
DILUPBiCGStab:  Solving for T, Initial residual = 0.00157843, Final residual = 0.000154013, No Iterations 12
GAMG:  Solving for p_rgh, Initial residual = 0.0187615, Final residual = 0.000149959, No Iterations 1
time step continuity errors : sum local = 5.07396e-05, global = 1.78833e-05, cumulative = 0.000455377
ExecutionTime = 23.71 s  ClockTime = 24 s

Time = 91

DILUPBiCGStab:  Solving for Ux, Initial residual = 3.03989e-07, Final residual = 1.13093e-09, No Iterations 1
DILUPBiCGStab:  Solving for Uy, Initial residual = 0.000153633, Final residual = 5.68472e-07, No Iterations 1
DILUPBiCGStab:  Solving for Uz, Initial residual = 0.00132991, Final residual = 5.52072e-06, No Iterations 1
DILUPBiCGStab:  Solving for T, Initial residual = 0.00160996, Final residual = 0.000159761, No Iterations 10
GAMG:  Solving for p_rgh, Initial residual = 0.0186323, Final residual = 0.000151045, No Iterations 1
time step continuity errors : sum local = 5.08863e-05, global = 1.79957e-05, cumulative = 0.000473373
ExecutionTime = 23.94 s  ClockTime = 24 s

Time = 92

DILUPBiCGStab:  Solving for Ux, Initial residual = 2.99694e-07, Final residual = 1.09963e-09, No Iterations 1
DILUPBiCGStab:  Solving for Uy, Initial residual = 0.00014849, Final residual = 5.48877e-07, No Iterations 1
DILUPBiCGStab:  Solving for Uz, Initial residual = 0.00137306, Final residual = 5.68795e-06, No Iterations 1
DILUPBiCGStab:  Solving for T, Initial residual = 0.00161576, Final residual = 1.04999e-05, No Iterations 14
GAMG:  Solving for p_rgh, Initial residual = 0.0179789, Final residual = 0.000151939, No Iterations 1
time step continuity errors : sum local = 5.15031e-05, global = 2.05798e-05, cumulative = 0.000493953
ExecutionTime = 24.17 s  ClockTime = 25 s

Time = 93

DILUPBiCGStab:  Solving for Ux, Initial residual = 2.95544e-07, Final residual = 1.08635e-09, No Iterations 1
DILUPBiCGStab:  Solving for Uy, Initial residual = 0.000144804, Final residual = 5.40217e-07, No Iterations 1
DILUPBiCGStab:  Solving for Uz, Initial residual = 0.00144115, Final residual = 5.97027e-06, No Iterations 1
DILUPBiCGStab:  Solving for T, Initial residual = 0.0014353, Final residual = 0.000107322, No Iterations 12
GAMG:  Solving for p_rgh, Initial residual = 0.0180872, Final residual = 0.000151667, No Iterations 1
time step continuity errors : sum local = 5.03451e-05, global = 2.27593e-05, cumulative = 0.000516712
ExecutionTime = 24.41 s  ClockTime = 25 s

Time = 94

DILUPBiCGStab:  Solving for Ux, Initial residual = 2.91376e-07, Final residual = 1.06787e-09, No Iterations 1
DILUPBiCGStab:  Solving for Uy, Initial residual = 0.000140555, Final residual = 5.21677e-07, No Iterations 1
DILUPBiCGStab:  Solving for Uz, Initial residual = 0.00151227, Final residual = 6.28042e-06, No Iterations 1
DILUPBiCGStab:  Solving for T, Initial residual = 0.00155396, Final residual = 6.56062e-05, No Iterations 14
GAMG:  Solving for p_rgh, Initial residual = 0.0173968, Final residual = 0.000151189, No Iterations 1
time step continuity errors : sum local = 5.05807e-05, global = 1.80721e-05, cumulative = 0.000534784
ExecutionTime = 24.63 s  ClockTime = 25 s

Time = 95

DILUPBiCGStab:  Solving for Ux, Initial residual = 2.87338e-07, Final residual = 1.0435e-09, No Iterations 1
DILUPBiCGStab:  Solving for Uy, Initial residual = 0.000136639, Final residual = 5.03225e-07, No Iterations 1
DILUPBiCGStab:  Solving for Uz, Initial residual = 0.00158877, Final residual = 6.56426e-06, No Iterations 1
DILUPBiCGStab:  Solving for T, Initial residual = 0.00148005, Final residual = 0.000103778, No Iterations 13
GAMG:  Solving for p_rgh, Initial residual = 0.0172111, Final residual = 0.000154951, No Iterations 1
time step continuity errors : sum local = 5.15763e-05, global = 1.49692e-05, cumulative = 0.000549753
ExecutionTime = 24.86 s  ClockTime = 25 s

Time = 96

DILUPBiCGStab:  Solving for Ux, Initial residual = 2.83435e-07, Final residual = 1.02817e-09, No Iterations 1
DILUPBiCGStab:  Solving for Uy, Initial residual = 0.000132953, Final residual = 4.87216e-07, No Iterations 1
DILUPBiCGStab:  Solving for Uz, Initial residual = 0.00167153, Final residual = 6.93591e-06, No Iterations 1
DILUPBiCGStab:  Solving for T, Initial residual = 0.00148967, Final residual = 0.000122831, No Iterations 14
GAMG:  Solving for p_rgh, Initial residual = 0.0169863, Final residual = 0.000148133, No Iterations 1
time step continuity errors : sum local = 4.96793e-05, global = 1.69735e-05, cumulative = 0.000566727
ExecutionTime = 25.1 s  ClockTime = 26 s

Time = 97

DILUPBiCGStab:  Solving for Ux, Initial residual = 2.79562e-07, Final residual = 1.00874e-09, No Iterations 1
DILUPBiCGStab:  Solving for Uy, Initial residual = 0.000129661, Final residual = 4.74726e-07, No Iterations 1
DILUPBiCGStab:  Solving for Uz, Initial residual = 0.00175477, Final residual = 7.30073e-06, No Iterations 1
DILUPBiCGStab:  Solving for T, Initial residual = 0.0014985, Final residual = 0.000134254, No Iterations 11
GAMG:  Solving for p_rgh, Initial residual = 0.0169265, Final residual = 0.000144398, No Iterations 1
time step continuity errors : sum local = 4.73679e-05, global = 1.74739e-05, cumulative = 0.0005842
ExecutionTime = 25.33 s  ClockTime = 26 s

Time = 98

DILUPBiCGStab:  Solving for Ux, Initial residual = 2.75642e-07, Final residual = 9.9677e-10, No Iterations 1
DILUPBiCGStab:  Solving for Uy, Initial residual = 0.000126567, Final residual = 4.65847e-07, No Iterations 1
DILUPBiCGStab:  Solving for Uz, Initial residual = 0.00189624, Final residual = 7.93392e-06, No Iterations 1
DILUPBiCGStab:  Solving for T, Initial residual = 0.00147284, Final residual = 1.2283e-05, No Iterations 16
GAMG:  Solving for p_rgh, Initial residual = 0.0166508, Final residual = 0.000139684, No Iterations 1
time step continuity errors : sum local = 4.55873e-05, global = 1.73418e-05, cumulative = 0.000601542
ExecutionTime = 25.56 s  ClockTime = 26 s

Time = 99

DILUPBiCGStab:  Solving for Ux, Initial residual = 2.71984e-07, Final residual = 9.73425e-10, No Iterations 1
DILUPBiCGStab:  Solving for Uy, Initial residual = 0.000124344, Final residual = 4.53579e-07, No Iterations 1
DILUPBiCGStab:  Solving for Uz, Initial residual = 0.0020514, Final residual = 8.57137e-06, No Iterations 1
DILUPBiCGStab:  Solving for T, Initial residual = 0.00136542, Final residual = 0.000122702, No Iterations 13
GAMG:  Solving for p_rgh, Initial residual = 0.0165239, Final residual = 0.000139805, No Iterations 1
time step continuity errors : sum local = 4.58806e-05, global = 1.79439e-05, cumulative = 0.000619486
ExecutionTime = 25.8 s  ClockTime = 26 s

Time = 100

DILUPBiCGStab:  Solving for Ux, Initial residual = 2.68232e-07, Final residual = 9.59818e-10, No Iterations 1
DILUPBiCGStab:  Solving for Uy, Initial residual = 0.000120737, Final residual = 4.42784e-07, No Iterations 1
DILUPBiCGStab:  Solving for Uz, Initial residual = 0.002214, Final residual = 9.24915e-06, No Iterations 1
DILUPBiCGStab:  Solving for T, Initial residual = 0.00147055, Final residual = 5.14836e-05, No Iterations 14
GAMG:  Solving for p_rgh, Initial residual = 0.0160273, Final residual = 0.000142509, No Iterations 1
time step continuity errors : sum local = 4.71196e-05, global = 1.73327e-05, cumulative = 0.000636819
ExecutionTime = 26.33 s  ClockTime = 27 s

Time = 101

DILUPBiCGStab:  Solving for Ux, Initial residual = 2.64543e-07, Final residual = 9.44746e-10, No Iterations 1
DILUPBiCGStab:  Solving for Uy, Initial residual = 0.000117993, Final residual = 4.32966e-07, No Iterations 1
DILUPBiCGStab:  Solving for Uz, Initial residual = 0.00249175, Final residual = 1.03493e-05, No Iterations 1
DILUPBiCGStab:  Solving for T, Initial residual = 0.00133647, Final residual = 0.00012522, No Iterations 12
GAMG:  Solving for p_rgh, Initial residual = 0.0158956, Final residual = 0.000139294, No Iterations 1
time step continuity errors : sum local = 4.50134e-05, global = 1.54362e-05, cumulative = 0.000652255
ExecutionTime = 26.56 s  ClockTime = 27 s

Time = 102

DILUPBiCGStab:  Solving for Ux, Initial residual = 2.61063e-07, Final residual = 9.19996e-10, No Iterations 1
DILUPBiCGStab:  Solving for Uy, Initial residual = 0.00011579, Final residual = 4.23111e-07, No Iterations 1
DILUPBiCGStab:  Solving for Uz, Initial residual = 0.00285158, Final residual = 1.20022e-05, No Iterations 1
DILUPBiCGStab:  Solving for T, Initial residual = 0.00141133, Final residual = 0.000111319, No Iterations 12
GAMG:  Solving for p_rgh, Initial residual = 0.0155704, Final residual = 0.000140121, No Iterations 1
time step continuity errors : sum local = 4.62104e-05, global = 1.4155e-05, cumulative = 0.00066641
ExecutionTime = 26.8 s  ClockTime = 27 s

Time = 103

DILUPBiCGStab:  Solving for Ux, Initial residual = 2.57406e-07, Final residual = 9.01818e-10, No Iterations 1
DILUPBiCGStab:  Solving for Uy, Initial residual = 0.000112458, Final residual = 4.13012e-07, No Iterations 1
DILUPBiCGStab:  Solving for Uz, Initial residual = 0.00329909, Final residual = 1.37839e-05, No Iterations 1
DILUPBiCGStab:  Solving for T, Initial residual = 0.00141349, Final residual = 0.000117672, No Iterations 12
GAMG:  Solving for p_rgh, Initial residual = 0.0151445, Final residual = 0.000141817, No Iterations 1
time step continuity errors : sum local = 4.60496e-05, global = 1.53743e-05, cumulative = 0.000681784
ExecutionTime = 27.02 s  ClockTime = 27 s

Time = 104

DILUPBiCGStab:  Solving for Ux, Initial residual = 2.53946e-07, Final residual = 8.85516e-10, No Iterations 1
DILUPBiCGStab:  Solving for Uy, Initial residual = 0.00011059, Final residual = 4.00527e-07, No Iterations 1
DILUPBiCGStab:  Solving for Uz, Initial residual = 0.00406696, Final residual = 1.70711e-05, No Iterations 1
DILUPBiCGStab:  Solving for T, Initial residual = 0.0013753, Final residual = 9.64325e-05, No Iterations 10
GAMG:  Solving for p_rgh, Initial residual = 0.0147583, Final residual = 0.000135433, No Iterations 1
time step continuity errors : sum local = 4.45859e-05, global = 1.63544e-05, cumulative = 0.000698139
ExecutionTime = 27.25 s  ClockTime = 28 s

Time = 105

DILUPBiCGStab:  Solving for Ux, Initial residual = 2.50676e-07, Final residual = 8.65192e-10, No Iterations 1
DILUPBiCGStab:  Solving for Uy, Initial residual = 0.000108398, Final residual = 3.90712e-07, No Iterations 1
DILUPBiCGStab:  Solving for Uz, Initial residual = 0.00531083, Final residual = 2.20545e-05, No Iterations 1
DILUPBiCGStab:  Solving for T, Initial residual = 0.00137027, Final residual = 0.000117776, No Iterations 8
GAMG:  Solving for p_rgh, Initial residual = 0.0146854, Final residual = 0.000133324, No Iterations 1
time step continuity errors : sum local = 4.36278e-05, global = 1.37278e-05, cumulative = 0.000711867
ExecutionTime = 27.46 s  ClockTime = 28 s

Time = 106

DILUPBiCGStab:  Solving for Ux, Initial residual = 2.47321e-07, Final residual = 8.62846e-10, No Iterations 1
DILUPBiCGStab:  Solving for Uy, Initial residual = 0.000106444, Final residual = 3.87315e-07, No Iterations 1
DILUPBiCGStab:  Solving for Uz, Initial residual = 0.00435093, Final residual = 1.80654e-05, No Iterations 1
DILUPBiCGStab:  Solving for T, Initial residual = 0.00135415, Final residual = 9.61783e-05, No Iterations 9
GAMG:  Solving for p_rgh, Initial residual = 0.0145501, Final residual = 0.000132782, No Iterations 1
time step continuity errors : sum local = 4.33966e-05, global = 1.56789e-05, cumulative = 0.000727545
ExecutionTime = 27.68 s  ClockTime = 28 s

Time = 107

DILUPBiCGStab:  Solving for Ux, Initial residual = 2.44057e-07, Final residual = 8.47738e-10, No Iterations 1
DILUPBiCGStab:  Solving for Uy, Initial residual = 0.000105007, Final residual = 3.81806e-07, No Iterations 1
DILUPBiCGStab:  Solving for Uz, Initial residual = 0.00340675, Final residual = 1.43317e-05, No Iterations 1
DILUPBiCGStab:  Solving for T, Initial residual = 0.00130426, Final residual = 9.88276e-05, No Iterations 8
GAMG:  Solving for p_rgh, Initial residual = 0.0143371, Final residual = 0.000132397, No Iterations 1
time step continuity errors : sum local = 4.3605e-05, global = 1.80783e-05, cumulative = 0.000745624
ExecutionTime = 27.91 s  ClockTime = 28 s

Time = 108

DILUPBiCGStab:  Solving for Ux, Initial residual = 2.40841e-07, Final residual = 8.31447e-10, No Iterations 1
DILUPBiCGStab:  Solving for Uy, Initial residual = 0.00010326, Final residual = 3.75765e-07, No Iterations 1
DILUPBiCGStab:  Solving for Uz, Initial residual = 0.00279392, Final residual = 1.17928e-05, No Iterations 1
DILUPBiCGStab:  Solving for T, Initial residual = 0.0013077, Final residual = 0.000126497, No Iterations 7
GAMG:  Solving for p_rgh, Initial residual = 0.0138413, Final residual = 0.000134678, No Iterations 1
time step continuity errors : sum local = 4.44663e-05, global = 1.71587e-05, cumulative = 0.000762782
ExecutionTime = 28.12 s  ClockTime = 29 s

Time = 109

DILUPBiCGStab:  Solving for Ux, Initial residual = 2.37767e-07, Final residual = 8.14629e-10, No Iterations 1
DILUPBiCGStab:  Solving for Uy, Initial residual = 0.000101506, Final residual = 3.71818e-07, No Iterations 1
DILUPBiCGStab:  Solving for Uz, Initial residual = 0.00238417, Final residual = 1.00512e-05, No Iterations 1
DILUPBiCGStab:  Solving for T, Initial residual = 0.00131934, Final residual = 6.4199e-05, No Iterations 10
GAMG:  Solving for p_rgh, Initial residual = 0.0135132, Final residual = 0.000128009, No Iterations 1
time step continuity errors : sum local = 4.24772e-05, global = 1.67798e-05, cumulative = 0.000779562
ExecutionTime = 28.35 s  ClockTime = 29 s

Time = 110

DILUPBiCGStab:  Solving for Ux, Initial residual = 2.34588e-07, Final residual = 7.98675e-10, No Iterations 1
DILUPBiCGStab:  Solving for Uy, Initial residual = 0.000100023, Final residual = 3.62445e-07, No Iterations 1
DILUPBiCGStab:  Solving for Uz, Initial residual = 0.00201684, Final residual = 8.43402e-06, No Iterations 1
DILUPBiCGStab:  Solving for T, Initial residual = 0.00123923, Final residual = 0.000116901, No Iterations 14
GAMG:  Solving for p_rgh, Initial residual = 0.0132088, Final residual = 0.000118973, No Iterations 1
time step continuity errors : sum local = 3.91983e-05, global = 1.47413e-05, cumulative = 0.000794304
ExecutionTime = 28.58 s  ClockTime = 29 s

Time = 111

DILUPBiCGStab:  Solving for Ux, Initial residual = 2.31645e-07, Final residual = 7.85523e-10, No Iterations 1
DILUPBiCGStab:  Solving for Uy, Initial residual = 9.86347e-05, Final residual = 3.54485e-07, No Iterations 1
[...]
DILUPBiCGStab:  Solving for T, Initial residual = 0.00427802, Final residual = 0.000333851, No Iterations 2
GAMG:  Solving for p_rgh, Initial residual = 5.26088e-05, Final residual = 2.6011e-07, No Iterations 2
time step continuity errors : sum local = 0.00131763, global = -1.23258e-05, cumulative = -0.00530094
ExecutionTime = 559.68 s  ClockTime = 560 s

Time = 2219

DILUPBiCGStab:  Solving for Ux, Initial residual = 3.09275e-06, Final residual = 1.96972e-08, No Iterations 1
DILUPBiCGStab:  Solving for Uy, Initial residual = 9.66512e-05, Final residual = 4.80033e-07, No Iterations 1
DILUPBiCGStab:  Solving for Uz, Initial residual = 0.000212009, Final residual = 1.03261e-06, No Iterations 1
DILUPBiCGStab:  Solving for T, Initial residual = 0.00484219, Final residual = 0.000336262, No Iterations 2
GAMG:  Solving for p_rgh, Initial residual = 5.11642e-05, Final residual = 2.38858e-07, No Iterations 2
time step continuity errors : sum local = 0.00121714, global = -5.93504e-06, cumulative = -0.00530688
ExecutionTime = 559.91 s  ClockTime = 560 s

Time = 2220

DILUPBiCGStab:  Solving for Ux, Initial residual = 2.72294e-06, Final residual = 1.48595e-08, No Iterations 1
DILUPBiCGStab:  Solving for Uy, Initial residual = 8.81354e-05, Final residual = 4.6417e-07, No Iterations 1
DILUPBiCGStab:  Solving for Uz, Initial residual = 0.000182856, Final residual = 9.20085e-07, No Iterations 1
DILUPBiCGStab:  Solving for T, Initial residual = 0.00472229, Final residual = 0.000448986, No Iterations 1
GAMG:  Solving for p_rgh, Initial residual = 4.88195e-05, Final residual = 2.26438e-07, No Iterations 2
time step continuity errors : sum local = 0.00114835, global = -4.45758e-05, cumulative = -0.00535145
ExecutionTime = 560.13 s  ClockTime = 561 s

Time = 2221

DILUPBiCGStab:  Solving for Ux, Initial residual = 2.4565e-06, Final residual = 1.49653e-08, No Iterations 1
DILUPBiCGStab:  Solving for Uy, Initial residual = 8.20809e-05, Final residual = 5.33516e-07, No Iterations 1
DILUPBiCGStab:  Solving for Uz, Initial residual = 0.0001714, Final residual = 9.62916e-07, No Iterations 1
DILUPBiCGStab:  Solving for T, Initial residual = 0.00461135, Final residual = 0.000414688, No Iterations 1
GAMG:  Solving for p_rgh, Initial residual = 4.59593e-05, Final residual = 2.54134e-07, No Iterations 2
time step continuity errors : sum local = 0.00128379, global = -0.000136953, cumulative = -0.0054884
ExecutionTime = 560.34 s  ClockTime = 561 s

Time = 2222

DILUPBiCGStab:  Solving for Ux, Initial residual = 2.25543e-06, Final residual = 1.46426e-08, No Iterations 1
DILUPBiCGStab:  Solving for Uy, Initial residual = 7.34429e-05, Final residual = 4.8162e-07, No Iterations 1
DILUPBiCGStab:  Solving for Uz, Initial residual = 0.000147777, Final residual = 9.83241e-07, No Iterations 1
DILUPBiCGStab:  Solving for T, Initial residual = 0.00420574, Final residual = 0.000306593, No Iterations 2
GAMG:  Solving for p_rgh, Initial residual = 4.69525e-05, Final residual = 1.5338e-07, No Iterations 2
time step continuity errors : sum local = 0.000774425, global = -0.000167907, cumulative = -0.00565631
ExecutionTime = 560.55 s  ClockTime = 561 s

Time = 2223

DILUPBiCGStab:  Solving for Ux, Initial residual = 2.54863e-06, Final residual = 1.41254e-08, No Iterations 1
DILUPBiCGStab:  Solving for Uy, Initial residual = 7.90889e-05, Final residual = 4.23866e-07, No Iterations 1
DILUPBiCGStab:  Solving for Uz, Initial residual = 0.000162813, Final residual = 8.91871e-07, No Iterations 1
DILUPBiCGStab:  Solving for T, Initial residual = 0.0044772, Final residual = 0.000435062, No Iterations 1
GAMG:  Solving for p_rgh, Initial residual = 4.57113e-05, Final residual = 1.79652e-07, No Iterations 2
time step continuity errors : sum local = 0.000900855, global = -0.000175701, cumulative = -0.00583201
ExecutionTime = 560.77 s  ClockTime = 561 s

Time = 2224

DILUPBiCGStab:  Solving for Ux, Initial residual = 2.74468e-06, Final residual = 1.72636e-08, No Iterations 1
DILUPBiCGStab:  Solving for Uy, Initial residual = 8.44749e-05, Final residual = 4.84161e-07, No Iterations 1
DILUPBiCGStab:  Solving for Uz, Initial residual = 0.000176999, Final residual = 9.7751e-07, No Iterations 1
DILUPBiCGStab:  Solving for T, Initial residual = 0.00463764, Final residual = 0.000455532, No Iterations 1
GAMG:  Solving for p_rgh, Initial residual = 5.16419e-05, Final residual = 2.26076e-07, No Iterations 2
time step continuity errors : sum local = 0.00113342, global = -0.000157932, cumulative = -0.00598994
ExecutionTime = 561.02 s  ClockTime = 562 s

Time = 2225

DILUPBiCGStab:  Solving for Ux, Initial residual = 2.95858e-06, Final residual = 1.77524e-08, No Iterations 1
DILUPBiCGStab:  Solving for Uy, Initial residual = 9.08517e-05, Final residual = 4.84422e-07, No Iterations 1
DILUPBiCGStab:  Solving for Uz, Initial residual = 0.000188658, Final residual = 8.79735e-07, No Iterations 1
DILUPBiCGStab:  Solving for T, Initial residual = 0.00480351, Final residual = 0.000321255, No Iterations 2
GAMG:  Solving for p_rgh, Initial residual = 4.99648e-05, Final residual = 2.14475e-07, No Iterations 2
time step continuity errors : sum local = 0.00107797, global = -0.000124973, cumulative = -0.00611492
ExecutionTime = 561.3 s  ClockTime = 562 s

Time = 2226

DILUPBiCGStab:  Solving for Ux, Initial residual = 2.69994e-06, Final residual = 1.93441e-08, No Iterations 1
DILUPBiCGStab:  Solving for Uy, Initial residual = 8.81454e-05, Final residual = 4.98104e-07, No Iterations 1
DILUPBiCGStab:  Solving for Uz, Initial residual = 0.000183353, Final residual = 1.00579e-06, No Iterations 1
DILUPBiCGStab:  Solving for T, Initial residual = 0.00439731, Final residual = 0.000300263, No Iterations 2
GAMG:  Solving for p_rgh, Initial residual = 4.98928e-05, Final residual = 2.18605e-07, No Iterations 2
time step continuity errors : sum local = 0.00110203, global = -8.8779e-05, cumulative = -0.0062037
ExecutionTime = 561.56 s  ClockTime = 562 s

Time = 2227

DILUPBiCGStab:  Solving for Ux, Initial residual = 2.56164e-06, Final residual = 1.54596e-08, No Iterations 1
DILUPBiCGStab:  Solving for Uy, Initial residual = 7.963e-05, Final residual = 4.34811e-07, No Iterations 1
DILUPBiCGStab:  Solving for Uz, Initial residual = 0.00016891, Final residual = 9.30993e-07, No Iterations 1
DILUPBiCGStab:  Solving for T, Initial residual = 0.00452526, Final residual = 0.000428216, No Iterations 1
GAMG:  Solving for p_rgh, Initial residual = 4.80009e-05, Final residual = 2.12581e-07, No Iterations 2
time step continuity errors : sum local = 0.00106776, global = -6.85558e-05, cumulative = -0.00627225
ExecutionTime = 561.78 s  ClockTime = 562 s

Time = 2228

DILUPBiCGStab:  Solving for Ux, Initial residual = 2.50678e-06, Final residual = 1.36764e-08, No Iterations 1
DILUPBiCGStab:  Solving for Uy, Initial residual = 7.91128e-05, Final residual = 4.40988e-07, No Iterations 1
DILUPBiCGStab:  Solving for Uz, Initial residual = 0.000165781, Final residual = 1.01171e-06, No Iterations 1
DILUPBiCGStab:  Solving for T, Initial residual = 0.00457901, Final residual = 0.000453052, No Iterations 1
GAMG:  Solving for p_rgh, Initial residual = 4.7735e-05, Final residual = 2.59807e-07, No Iterations 2
time step continuity errors : sum local = 0.00130539, global = -6.41064e-05, cumulative = -0.00633636
ExecutionTime = 561.98 s  ClockTime = 563 s

Time = 2229

DILUPBiCGStab:  Solving for Ux, Initial residual = 2.58875e-06, Final residual = 1.66306e-08, No Iterations 1
DILUPBiCGStab:  Solving for Uy, Initial residual = 7.9793e-05, Final residual = 4.47442e-07, No Iterations 1
DILUPBiCGStab:  Solving for Uz, Initial residual = 0.000161252, Final residual = 8.71398e-07, No Iterations 1
DILUPBiCGStab:  Solving for T, Initial residual = 0.00465268, Final residual = 0.000321785, No Iterations 2
GAMG:  Solving for p_rgh, Initial residual = 5.05049e-05, Final residual = 2.92762e-07, No Iterations 2
time step continuity errors : sum local = 0.00147096, global = -9.72793e-05, cumulative = -0.00643364
ExecutionTime = 562.2 s  ClockTime = 563 s

Time = 2230

DILUPBiCGStab:  Solving for Ux, Initial residual = 3.06712e-06, Final residual = 1.7518e-08, No Iterations 1
DILUPBiCGStab:  Solving for Uy, Initial residual = 9.28465e-05, Final residual = 5.2433e-07, No Iterations 1
DILUPBiCGStab:  Solving for Uz, Initial residual = 0.000201022, Final residual = 1.06213e-06, No Iterations 1
DILUPBiCGStab:  Solving for T, Initial residual = 0.00472457, Final residual = 0.000309288, No Iterations 2
GAMG:  Solving for p_rgh, Initial residual = 5.15384e-05, Final residual = 2.34114e-07, No Iterations 2
time step continuity errors : sum local = 0.00118658, global = -0.000147436, cumulative = -0.00658107
ExecutionTime = 562.41 s  ClockTime = 563 s

Time = 2231

DILUPBiCGStab:  Solving for Ux, Initial residual = 2.91646e-06, Final residual = 1.88327e-08, No Iterations 1
DILUPBiCGStab:  Solving for Uy, Initial residual = 8.71923e-05, Final residual = 4.70484e-07, No Iterations 1
DILUPBiCGStab:  Solving for Uz, Initial residual = 0.000186351, Final residual = 9.53933e-07, No Iterations 1
DILUPBiCGStab:  Solving for T, Initial residual = 0.00471796, Final residual = 0.000467287, No Iterations 1
GAMG:  Solving for p_rgh, Initial residual = 4.81104e-05, Final residual = 2.41189e-07, No Iterations 2
time step continuity errors : sum local = 0.00122502, global = -0.000183121, cumulative = -0.0067642
ExecutionTime = 562.62 s  ClockTime = 563 s

Time = 2232

DILUPBiCGStab:  Solving for Ux, Initial residual = 2.84463e-06, Final residual = 1.80234e-08, No Iterations 1
DILUPBiCGStab:  Solving for Uy, Initial residual = 8.70338e-05, Final residual = 4.43848e-07, No Iterations 1
DILUPBiCGStab:  Solving for Uz, Initial residual = 0.000184902, Final residual = 8.93609e-07, No Iterations 1
DILUPBiCGStab:  Solving for T, Initial residual = 0.00470073, Final residual = 0.000430253, No Iterations 1
GAMG:  Solving for p_rgh, Initial residual = 4.73015e-05, Final residual = 2.93741e-07, No Iterations 2
time step continuity errors : sum local = 0.00149553, global = -0.000164742, cumulative = -0.00692894
ExecutionTime = 562.83 s  ClockTime = 563 s

Time = 2233

DILUPBiCGStab:  Solving for Ux, Initial residual = 2.60619e-06, Final residual = 1.61027e-08, No Iterations 1
DILUPBiCGStab:  Solving for Uy, Initial residual = 7.85076e-05, Final residual = 4.55121e-07, No Iterations 1
DILUPBiCGStab:  Solving for Uz, Initial residual = 0.000164048, Final residual = 9.01392e-07, No Iterations 1
DILUPBiCGStab:  Solving for T, Initial residual = 0.00469495, Final residual = 0.000460052, No Iterations 1
GAMG:  Solving for p_rgh, Initial residual = 4.60795e-05, Final residual = 2.73011e-07, No Iterations 2
time step continuity errors : sum local = 0.00139277, global = -9.80005e-05, cumulative = -0.00702694
ExecutionTime = 563.06 s  ClockTime = 564 s

Time = 2234

DILUPBiCGStab:  Solving for Ux, Initial residual = 2.82333e-06, Final residual = 1.36027e-08, No Iterations 1
DILUPBiCGStab:  Solving for Uy, Initial residual = 8.091e-05, Final residual = 4.02233e-07, No Iterations 1
DILUPBiCGStab:  Solving for Uz, Initial residual = 0.000175352, Final residual = 9.55932e-07, No Iterations 1
DILUPBiCGStab:  Solving for T, Initial residual = 0.00440468, Final residual = 0.00031551, No Iterations 2
GAMG:  Solving for p_rgh, Initial residual = 4.64772e-05, Final residual = 2.39942e-07, No Iterations 2
time step continuity errors : sum local = 0.00122578, global = -2.6745e-05, cumulative = -0.00705368
ExecutionTime = 563.27 s  ClockTime = 564 s

Time = 2235

DILUPBiCGStab:  Solving for Ux, Initial residual = 2.72085e-06, Final residual = 1.49989e-08, No Iterations 1
DILUPBiCGStab:  Solving for Uy, Initial residual = 8.75719e-05, Final residual = 5.20453e-07, No Iterations 1
DILUPBiCGStab:  Solving for Uz, Initial residual = 0.000185959, Final residual = 1.14033e-06, No Iterations 1
DILUPBiCGStab:  Solving for T, Initial residual = 0.0045873, Final residual = 0.000437526, No Iterations 1
GAMG:  Solving for p_rgh, Initial residual = 5.13185e-05, Final residual = 2.76829e-07, No Iterations 2
time step continuity errors : sum local = 0.00141236, global = 6.88205e-06, cumulative = -0.0070468
ExecutionTime = 563.48 s  ClockTime = 564 s

Time = 2236

DILUPBiCGStab:  Solving for Ux, Initial residual = 2.80284e-06, Final residual = 1.45873e-08, No Iterations 1
DILUPBiCGStab:  Solving for Uy, Initial residual = 8.91992e-05, Final residual = 4.84496e-07, No Iterations 1
DILUPBiCGStab:  Solving for Uz, Initial residual = 0.000195403, Final residual = 9.28631e-07, No Iterations 1
DILUPBiCGStab:  Solving for T, Initial residual = 0.00479711, Final residual = 0.000415969, No Iterations 1
GAMG:  Solving for p_rgh, Initial residual = 4.43806e-05, Final residual = 1.82167e-07, No Iterations 2
time step continuity errors : sum local = 0.00093306, global = 1.21163e-05, cumulative = -0.00703468
ExecutionTime = 563.69 s  ClockTime = 564 s

Time = 2237

DILUPBiCGStab:  Solving for Ux, Initial residual = 2.44349e-06, Final residual = 1.49915e-08, No Iterations 1
DILUPBiCGStab:  Solving for Uy, Initial residual = 7.98283e-05, Final residual = 4.49206e-07, No Iterations 1
DILUPBiCGStab:  Solving for Uz, Initial residual = 0.000177411, Final residual = 9.68227e-07, No Iterations 1
DILUPBiCGStab:  Solving for T, Initial residual = 0.00438898, Final residual = 0.00043402, No Iterations 1
GAMG:  Solving for p_rgh, Initial residual = 4.72602e-05, Final residual = 2.50044e-07, No Iterations 2
time step continuity errors : sum local = 0.00127995, global = -4.94232e-05, cumulative = -0.00708411
ExecutionTime = 563.91 s  ClockTime = 564 s

Time = 2238

DILUPBiCGStab:  Solving for Ux, Initial residual = 2.46626e-06, Final residual = 1.42611e-08, No Iterations 1
DILUPBiCGStab:  Solving for Uy, Initial residual = 7.52832e-05, Final residual = 4.44684e-07, No Iterations 1
DILUPBiCGStab:  Solving for Uz, Initial residual = 0.000160782, Final residual = 9.51767e-07, No Iterations 1
DILUPBiCGStab:  Solving for T, Initial residual = 0.00462676, Final residual = 0.000445937, No Iterations 1
GAMG:  Solving for p_rgh, Initial residual = 4.37373e-05, Final residual = 1.52647e-07, No Iterations 2
time step continuity errors : sum local = 0.000777541, global = -0.000114669, cumulative = -0.00719878
ExecutionTime = 564.12 s  ClockTime = 565 s

Time = 2239

DILUPBiCGStab:  Solving for Ux, Initial residual = 2.43571e-06, Final residual = 1.28656e-08, No Iterations 1
DILUPBiCGStab:  Solving for Uy, Initial residual = 7.44954e-05, Final residual = 4.04368e-07, No Iterations 1
DILUPBiCGStab:  Solving for Uz, Initial residual = 0.000152191, Final residual = 8.68378e-07, No Iterations 1
DILUPBiCGStab:  Solving for T, Initial residual = 0.00438293, Final residual = 0.000315402, No Iterations 2
GAMG:  Solving for p_rgh, Initial residual = 4.2499e-05, Final residual = 1.69815e-07, No Iterations 2
time step continuity errors : sum local = 0.000866242, global = -0.000166988, cumulative = -0.00736576
ExecutionTime = 564.33 s  ClockTime = 565 s

Time = 2240

DILUPBiCGStab:  Solving for Ux, Initial residual = 2.27965e-06, Final residual = 1.4778e-08, No Iterations 1
DILUPBiCGStab:  Solving for Uy, Initial residual = 7.52059e-05, Final residual = 5.1966e-07, No Iterations 1
DILUPBiCGStab:  Solving for Uz, Initial residual = 0.000152884, Final residual = 9.84688e-07, No Iterations 1
DILUPBiCGStab:  Solving for T, Initial residual = 0.00412875, Final residual = 0.000267774, No Iterations 2
GAMG:  Solving for p_rgh, Initial residual = 4.598e-05, Final residual = 2.56559e-07, No Iterations 2
time step continuity errors : sum local = 0.00130916, global = -0.000182345, cumulative = -0.00754811
ExecutionTime = 564.54 s  ClockTime = 565 s

Time = 2241

DILUPBiCGStab:  Solving for Ux, Initial residual = 2.81835e-06, Final residual = 1.54698e-08, No Iterations 1
DILUPBiCGStab:  Solving for Uy, Initial residual = 8.76323e-05, Final residual = 4.45946e-07, No Iterations 1
DILUPBiCGStab:  Solving for Uz, Initial residual = 0.00019813, Final residual = 8.94236e-07, No Iterations 1
DILUPBiCGStab:  Solving for T, Initial residual = 0.00435422, Final residual = 0.000405527, No Iterations 1
GAMG:  Solving for p_rgh, Initial residual = 4.77726e-05, Final residual = 2.32867e-07, No Iterations 2
time step continuity errors : sum local = 0.0011861, global = -0.000163598, cumulative = -0.00771171
ExecutionTime = 564.77 s  ClockTime = 565 s

Time = 2242

DILUPBiCGStab:  Solving for Ux, Initial residual = 2.75342e-06, Final residual = 1.7253e-08, No Iterations 1
DILUPBiCGStab:  Solving for Uy, Initial residual = 9.05384e-05, Final residual = 4.88212e-07, No Iterations 1
DILUPBiCGStab:  Solving for Uz, Initial residual = 0.000182797, Final residual = 9.91608e-07, No Iterations 1
DILUPBiCGStab:  Solving for T, Initial residual = 0.00466747, Final residual = 0.00031721, No Iterations 2
GAMG:  Solving for p_rgh, Initial residual = 5.08088e-05, Final residual = 1.98225e-07, No Iterations 2
time step continuity errors : sum local = 0.00101131, global = -0.000139895, cumulative = -0.0078516
ExecutionTime = 564.97 s  ClockTime = 566 s

Time = 2243

DILUPBiCGStab:  Solving for Ux, Initial residual = 2.7884e-06, Final residual = 1.68672e-08, No Iterations 1
DILUPBiCGStab:  Solving for Uy, Initial residual = 8.40857e-05, Final residual = 4.75188e-07, No Iterations 1
DILUPBiCGStab:  Solving for Uz, Initial residual = 0.000178724, Final residual = 9.72242e-07, No Iterations 1
DILUPBiCGStab:  Solving for T, Initial residual = 0.00471072, Final residual = 0.000453552, No Iterations 1
GAMG:  Solving for p_rgh, Initial residual = 4.91639e-05, Final residual = 1.96424e-07, No Iterations 2
time step continuity errors : sum local = 0.000991816, global = -9.86949e-05, cumulative = -0.0079503
ExecutionTime = 565.19 s  ClockTime = 566 s

Time = 2244

DILUPBiCGStab:  Solving for Ux, Initial residual = 2.61234e-06, Final residual = 1.70199e-08, No Iterations 1
DILUPBiCGStab:  Solving for Uy, Initial residual = 7.99575e-05, Final residual = 4.35103e-07, No Iterations 1
DILUPBiCGStab:  Solving for Uz, Initial residual = 0.000173534, Final residual = 1.05674e-06, No Iterations 1
DILUPBiCGStab:  Solving for T, Initial residual = 0.00470878, Final residual = 0.000457386, No Iterations 1
GAMG:  Solving for p_rgh, Initial residual = 4.8987e-05, Final residual = 2.39787e-07, No Iterations 2
time step continuity errors : sum local = 0.00121319, global = -5.98367e-05, cumulative = -0.00801013
ExecutionTime = 565.4 s  ClockTime = 566 s

Time = 2245

DILUPBiCGStab:  Solving for Ux, Initial residual = 2.88508e-06, Final residual = 2.02878e-08, No Iterations 1
DILUPBiCGStab:  Solving for Uy, Initial residual = 8.83035e-05, Final residual = 5.59501e-07, No Iterations 1
DILUPBiCGStab:  Solving for Uz, Initial residual = 0.000177361, Final residual = 9.40194e-07, No Iterations 1
DILUPBiCGStab:  Solving for T, Initial residual = 0.00478929, Final residual = 0.000322128, No Iterations 2
GAMG:  Solving for p_rgh, Initial residual = 5.1448e-05, Final residual = 2.74189e-07, No Iterations 2
time step continuity errors : sum local = 0.00137699, global = -7.38081e-05, cumulative = -0.00808394
ExecutionTime = 565.61 s  ClockTime = 566 s

Time = 2246

DILUPBiCGStab:  Solving for Ux, Initial residual = 2.67871e-06, Final residual = 1.85119e-08, No Iterations 1
DILUPBiCGStab:  Solving for Uy, Initial residual = 8.21671e-05, Final residual = 5.51591e-07, No Iterations 1
DILUPBiCGStab:  Solving for Uz, Initial residual = 0.000166054, Final residual = 1.19896e-06, No Iterations 1
DILUPBiCGStab:  Solving for T, Initial residual = 0.00466433, Final residual = 0.000330914, No Iterations 2
GAMG:  Solving for p_rgh, Initial residual = 5.32513e-05, Final residual = 2.3474e-07, No Iterations 2
time step continuity errors : sum local = 0.00118048, global = -0.000104908, cumulative = -0.00818885
ExecutionTime = 565.84 s  ClockTime = 566 s

Time = 2247

